40

C     -1.545849   -1.491115    1.329018
C     -3.783547   -0.496227   -2.506594
C     -2.995936    0.705834   -2.052909
C     -3.469889   -1.662655   -1.583600
C      3.684989    3.230207    1.999022
C      2.317010    3.264915    1.849110
C     -2.126199    0.401365   -0.856093
C     -1.976381   -1.921909   -1.725576
C      4.370000    2.077540    1.745734
C      1.637942    2.144056    1.445550
C     -0.592986   -1.159722    0.229373
C     -1.253123   -0.800404   -1.066912
C      3.730878    0.891641    1.328038
C      2.375076    0.970316    1.192274
C      4.569864   -0.250869    1.095635
C      1.602049   -0.181684    0.768877
O      5.832956   -0.119745    1.281191
O      4.191463   -1.485880    0.694191
O      1.993229   -1.324528    0.484339
O      0.188663   -0.058167    0.639202
H     -2.270502   -2.285420    1.074733
H     -2.062842   -0.615050    1.763691
H     -0.931370   -1.915163    2.173245
H     -3.412300   -0.779742   -3.513934
H     -4.873557   -0.292440   -2.545318
H     -3.721354    1.487910   -1.742150
H     -2.386925    1.153583   -2.869794
H     -3.741100   -1.327765   -0.561500
H     -4.061773   -2.558361   -1.861280
H      4.221910    4.134667    2.323372
H      1.781503    4.181208    2.051511
H     -2.710765    0.315810    0.068439
H     -1.455654    1.290786   -0.713906
H     -1.766070   -1.942444   -2.821909
H     -1.698944   -2.923700   -1.348504
H      5.437900    2.064043    1.866677
H      0.548330    2.161180    1.323105
H      0.025990   -2.070773    0.038521
H     -0.427290   -0.473557   -1.761505
H      4.754605   -2.337739    0.766636
