34

C     -0.806657    3.140747    0.633510
C      1.559737    2.671642    0.495661
C      2.551640   -2.630893   -0.002002
C     -2.231509   -2.934066   -1.280333
C      1.773643   -0.306021    0.865682
C     -2.194463   -0.490526   -0.525190
C      0.782868   -0.183339   -0.012879
C     -1.539713    0.583383    0.227084
C      0.235799    2.061912    0.850572
C      2.638587   -1.475734    0.892672
C     -1.745842   -1.867271   -0.331872
C     -0.131988    0.929190   -0.127725
O      3.558277   -1.490613    1.781763
O     -1.000060   -2.192767    0.557210
H     -1.209558    3.130842   -0.399221
H     -0.334210    4.166149    0.754495
H     -1.624030    3.109382    1.388058
H      2.163896    2.079327   -0.217427
H      1.463009    3.688291    0.009321
H      2.106150    2.883390    1.448747
H      1.516757   -3.013229   -0.150100
H      2.974098   -2.415524   -0.997131
H      3.124654   -3.513036    0.407874
H     -3.167431   -2.532506   -1.740731
H     -2.526278   -3.856072   -0.712833
H     -1.453312   -3.166731   -2.015694
H      1.897453    0.505325    1.560022
H     -2.203695   -0.214494   -1.634433
H     -3.300495   -0.494642   -0.280366
H      0.731832   -0.991444   -0.729373
H     -1.483735    0.218358    1.314735
H     -2.184777    1.506547    0.309990
H      0.158427    1.696326    1.877878
H     -0.099074    1.398098   -1.132077
