37

C     -2.425193    0.266243    0.778583
C     -1.771519    1.736054   -1.031305
C      0.248596   -1.425563    1.760196
C     -0.897695   -1.936438   -0.914994
C      2.891291    0.120102   -0.444634
C     -1.530287   -0.644929   -1.286295
C      0.563812   -1.677101   -0.635217
C      2.204115   -0.535731    0.726871
C      0.361278    1.803314    1.056953
C      0.804660    1.682303   -0.342131
C      2.215014    1.440085   -0.602053
C     -1.365144    0.451119   -0.281824
C      0.718329   -0.693651    0.527536
C      0.021907    0.589096    0.260443
O      2.901721    2.376121   -0.975441
H     -3.387466    0.781195    0.474798
H     -2.165037    0.709625    1.749072
H     -2.749459   -0.814290    0.860916
H     -2.889906    1.678280   -1.158719
H     -1.575146    2.631863   -0.449835
H     -1.366881    1.738276   -2.062559
H     -0.741441   -1.182455    2.106351
H      0.273316   -2.544381    1.603836
H      0.938607   -1.271692    2.641503
H     -1.420973   -2.432900   -0.085293
H     -0.938097   -2.608642   -1.796561
H      2.873600   -0.476386   -1.362877
H      3.955652    0.249651   -0.157773
H     -1.177683   -0.309269   -2.297208
H     -2.629849   -0.812463   -1.413124
H      1.023995   -1.315008   -1.555521
H      1.023590   -2.619276   -0.327453
H      2.612194   -1.553054    0.926190
H      2.383408    0.065394    1.622445
H     -0.454088    2.495987    1.356542
H      1.140015    1.682021    1.846963
H      0.330764    2.356498   -1.118381
