48

C      3.004797    3.362576   -1.310774
C     -1.976939    3.749204   -2.334494
C      0.444823   -1.338063    2.876854
C     -0.917079   -3.818341    2.333494
C      3.703960    1.277671   -0.140640
C      1.835850    1.202909   -1.564047
C     -1.691566    1.257746   -2.114748
C     -3.018801    2.411936   -0.527243
C      3.553350   -0.080799    0.152449
C      1.690403   -0.131994   -1.274018
C     -1.913423    0.051630   -1.498758
C     -3.238955    1.201657    0.087366
C      2.852147    1.914753   -0.992112
C     -2.216534    2.448578   -1.670779
C      0.372141   -1.936849    1.494543
C     -0.972408   -2.640171    1.393353
C      2.529025   -0.815711   -0.418749
C     -2.709743    0.035239   -0.368638
O      3.672083   -3.130406   -0.000397
O      1.646545   -3.121612   -1.311310
O     -4.399856   -1.276953    1.150726
O     -3.193793   -2.586715   -0.469291
O      1.346123   -2.828700    1.203569
O     -1.941830   -1.732461    1.689414
S      2.308556   -2.517328   -0.078079
S     -3.055570   -1.447566    0.495431
H      2.872620    3.965214   -0.389817
H      4.063595    3.542920   -1.641128
H      2.325172    3.659445   -2.122422
H     -1.669328    3.547723   -3.379793
H     -1.214933    4.321752   -1.767989
H     -2.926787    4.318719   -2.346407
H     -0.586873   -1.001896    3.131731
H      0.717380   -2.085185    3.648714
H      1.073249   -0.425071    2.914399
H     -1.809948   -4.491589    2.222517
H     -0.051326   -4.450068    2.006213
H     -0.720464   -3.539196    3.376314
H      4.506808    1.858220    0.305864
H      1.166395    1.735845   -2.242919
H     -1.060181    1.281806   -3.014085
H     -3.461931    3.296139   -0.122312
H      4.244286   -0.535306    0.824070
H      0.883768   -0.668559   -1.736900
H     -1.505170   -0.868216   -1.845636
H     -3.868790    1.186719    0.982418
H      0.369914   -1.093925    0.780852
H     -1.060761   -3.065721    0.366794
