34

C      1.113576    2.374625   -0.337143
C     -1.239673    2.463314    0.203077
C      4.776039   -1.403036   -0.015068
C     -4.136975   -1.604431   -0.434133
C      2.403998   -0.547364    0.136588
C     -2.287123   -0.425311    0.892028
C      1.251574   -0.304557   -0.411483
C     -0.987439   -0.734264    0.245401
C     -0.202118    1.573373   -0.438415
C      3.467368   -1.135800   -0.667320
C     -3.170024   -1.620922    0.687134
C      0.075413    0.303680    0.324255
O      3.281828   -1.407458   -1.871828
O     -3.132055   -2.607885    1.397789
H      1.277287    2.506377    0.751578
H      1.065977    3.303041   -0.907214
H      1.935948    1.728000   -0.711244
H     -1.483403    2.213856    1.234087
H     -2.120310    2.484973   -0.470612
H     -0.897590    3.544068    0.246714
H      4.669477   -1.989121    0.916044
H      5.222425   -0.393458    0.197515
H      5.395773   -1.980406   -0.710707
H     -4.187967   -0.603530   -0.929839
H     -5.139508   -1.909493   -0.132853
H     -3.779542   -2.322129   -1.228850
H      2.555750   -0.304412    1.197001
H     -2.842959    0.428929    0.462299
H     -2.205303   -0.315912    1.993640
H      1.079363   -0.533422   -1.445894
H     -1.156161   -1.068781   -0.798267
H     -0.576428   -1.642201    0.771696
H     -0.369693    1.380778   -1.502712
H      0.342478    0.548878    1.356735
