28

C      2.303129   -1.309920   -0.515549
C      3.028804    0.426701    0.986751
C     -1.833644    0.964878   -1.377423
C     -1.719916   -1.230105    0.505395
C     -2.062174    0.171837    0.961937
C     -0.314759   -1.220708   -0.024719
C      0.071492    1.243080    0.221669
C      1.954625   -0.367385    0.334774
C     -1.430196    1.198760    0.046620
C      0.514072   -0.151110    0.602449
H      1.593493   -1.937762   -1.038307
H      3.368387   -1.486418   -0.721302
H      2.681189    1.413179    1.332489
H      3.885585    0.483961    0.296678
H      3.389426   -0.112659    1.889620
H     -2.342382   -0.003842   -1.489527
H     -2.468337    1.801376   -1.767492
H     -0.935118    0.940312   -2.040792
H     -2.451483   -1.610707   -0.238328
H     -1.771761   -1.923259    1.363258
H     -3.145180    0.330797    1.045233
H     -1.625785    0.269981    1.991334
H     -0.302170   -1.212354   -1.120296
H      0.137122   -2.206887    0.290436
H      0.304084    1.924893    1.057681
H      0.566777    1.595962   -0.705043
H     -1.817374    2.200763    0.353736
H      0.422096   -0.193363    1.732454
