34

C      2.316943    0.461725    1.376659
C      2.769228   -1.259887   -0.279366
C     -3.278666   -1.265915   -0.290410
C     -0.862964   -1.716769   -0.652292
C      0.139630   -0.915777   -1.433344
C     -1.668920    0.598649   -0.370399
C     -0.025367    3.233669    0.734878
C      1.656985   -0.522720    0.436659
C     -1.868289   -0.838942    0.027495
C      0.740320    0.157764   -0.550657
C     -0.281139    1.030201    0.092238
Cl    -1.446307    3.220298    1.773984
O     -0.123843    2.346005   -0.329472
H      2.698089    1.355507    0.879337
H      1.674057    0.705700    2.250639
H      3.206603   -0.070333    1.811369
H      2.857931   -0.915157   -1.333719
H      2.588863   -2.368048   -0.278697
H      3.749023   -1.097621    0.204906
H     -3.770912   -0.575117   -1.011409
H     -3.914621   -1.296634    0.607285
H     -3.292653   -2.269072   -0.748375
H     -1.401192   -2.406520   -1.346286
H     -0.329108   -2.318690    0.104945
H     -0.279833   -0.493790   -2.367542
H      0.974361   -1.589505   -1.743350
H     -2.463039    1.189611    0.125281
H     -1.789773    0.761335   -1.456757
H      0.049354    4.253564    0.284699
H      0.890986    3.014955    1.295700
H      1.129434   -1.267987    1.069075
H     -1.759258   -0.881138    1.143103
H      1.407775    0.764243   -1.222720
H     -0.293699    0.976396    1.196544
