29

C     -3.731807   -0.124842    1.250777
C     -2.378615   -0.551533    0.703816
C      4.698924   -0.410657   -0.022040
C      3.835735    0.235931    0.836842
C      4.156004   -1.018358   -1.134195
C      2.477639    0.282510    0.606906
C      2.796737   -0.964955   -1.353281
C     -2.317104    1.425695   -0.749571
C      1.921542   -0.324339   -0.506833
C     -1.558585    0.671265    0.312493
C      0.461255   -0.266123   -0.745430
N     -0.242811    0.334745    0.068084
O     -2.393782    0.725108   -1.943231
O     -0.060751   -0.881445   -1.861320
H     -4.480098    0.027669    0.448036
H     -4.130331   -0.901969    1.920005
H     -3.576061    0.789857    1.841848
H     -1.862347   -1.093081    1.514089
H     -2.507520   -1.199689   -0.163351
H      5.761141   -0.430206    0.185301
H      4.252283    0.724716    1.726833
H      4.832221   -1.525543   -1.808105
H      1.786805    0.790928    1.279528
H      2.355344   -1.445101   -2.234798
H     -3.373465    1.528704   -0.380004
H     -1.953145    2.464564   -0.879271
H     -1.587970    1.307742    1.268309
H     -2.315460    1.342171   -2.737718
H     -0.865777   -1.513764   -1.816749
