28

C     -2.842002   -1.050829   -0.293779
C     -2.775516    1.339845   -0.004856
C      2.475827    1.742408   -0.341569
C      1.219817   -1.722280    0.667335
C      2.132706   -0.717606    0.016622
C     -0.221815   -1.558342    0.299112
C      0.238549    0.630047   -0.614587
C     -2.101221    0.003178    0.000326
C      1.568273    0.675000    0.155349
C     -0.688138   -0.133393    0.313447
H     -3.906395   -0.959157   -0.532939
H     -2.378658   -2.024428   -0.294341
H     -2.076368    2.146393   -0.303859
H     -3.571911    1.319532   -0.772277
H     -3.157419    1.605817    1.008974
H      2.699138    2.475275    0.479542
H      3.416966    1.338884   -0.759343
H      1.915822    2.344440   -1.104529
H      1.351028   -1.659989    1.763957
H      1.543143   -2.729216    0.329128
H      3.110181   -0.749747    0.536120
H      2.233941   -0.924115   -1.060685
H     -0.828932   -2.128032    1.027518
H     -0.402477   -1.992726   -0.696745
H      0.335948    0.016803   -1.537259
H     -0.119313    1.620953   -0.876629
H      1.347061    0.805993    1.255478
H     -0.518236    0.285293    1.340489
