29

C      3.339493    1.155024    1.205598
C     -0.959264   -2.725572   -1.710587
C     -2.642198    2.327291    1.264310
C      2.685341    0.429647    0.062283
C     -1.617477   -1.385596   -1.527553
C      1.223325    0.248872    0.396918
C      0.516428   -0.483567   -0.735401
C     -2.045656    0.990500    1.049716
C     -0.944371   -0.648923   -0.370548
O     -2.018198    0.157653    1.993253
O     -1.510486    0.609618   -0.154393
H      3.408150    2.258868    1.020776
H      2.793559    1.035761    2.166375
H      4.384145    0.768128    1.354174
H     -0.622676   -3.147738   -0.722683
H     -1.682336   -3.447179   -2.110960
H     -0.061199   -2.634910   -2.353628
H     -3.460905    2.221311    1.996727
H     -3.036592    2.738155    0.314870
H     -1.932387    3.060343    1.672734
H      3.114088   -0.603427   -0.046841
H      2.780555    0.958976   -0.908083
H     -1.498334   -0.747525   -2.434465
H     -2.688313   -1.472237   -1.261246
H      1.111927   -0.304550    1.344874
H      0.734738    1.250431    0.468485
H      0.982312   -1.480137   -0.881229
H      0.656556    0.106493   -1.654281
H     -1.010226   -1.235710    0.560805
