43

C     -5.220861   -0.083796   -2.194582
C      5.058907   -1.262668   -2.734160
C     -4.567310    2.788212    0.692735
C     -3.394607    2.814467    1.416949
C     -4.749214    1.818092   -0.259582
C     -2.403599    1.855352    1.175714
C      2.362180   -0.257879    1.391763
C      3.690073   -0.427784    1.791052
C      3.073870   -0.676956   -0.843717
C     -0.451598   -1.625747    1.212611
C      2.062612   -0.384047    0.077890
C      4.673047   -0.714566    0.883162
C     -3.760861    0.867378   -0.495133
C     -2.583455    0.884720    0.224155
C      4.381253   -0.846714   -0.471943
C     -0.379438   -0.204522    0.596919
C      0.674349   -0.248474   -0.447683
O     -1.491908   -1.688355    2.134398
O      5.994986   -0.883721    1.281439
O      0.672602    0.854493   -1.306001
O     -4.020272   -0.078848   -1.472916
O      5.391760   -1.137430   -1.377841
O     -1.640917   -0.058265   -0.031941
H     -5.470156    0.919390   -2.611192
H     -5.109332   -0.744642   -3.096120
H     -6.078514   -0.446086   -1.582507
H      5.908412   -1.718624   -3.318317
H      4.164727   -1.923670   -2.881542
H      4.816014   -0.299939   -3.225168
H     -5.330001    3.542384    0.892460
H     -3.238125    3.570077    2.167741
H     -5.685314    1.835879   -0.803358
H     -1.522011    1.951615    1.786821
H      1.620241   -0.015572    2.138275
H      3.896416   -0.320814    2.848008
H      2.805878   -0.771427   -1.888639
H      0.504186   -1.948679    1.600801
H     -0.772261   -2.337012    0.386290
H     -0.174297    0.534549    1.364034
H      0.490051   -1.134821   -1.098968
H     -1.801700   -2.601942    2.261812
H      6.719333   -1.095584    0.611361
H      0.884852    1.701976   -0.832613
