30

C      2.630394   -0.896941   -0.321720
C      2.302624    1.490034    0.220439
C     -2.152466    1.539504   -0.116661
C     -1.627569   -1.208344    1.014855
C     -2.213611   -0.960415   -0.334909
C     -0.115762   -1.393471    0.831346
C     -0.126868    0.295240   -0.921815
C      1.894827    0.076819    0.542129
C     -1.634782    0.347428   -0.866698
C      0.401381   -0.036058    0.435061
H      3.677635   -0.495160   -0.448290
H      2.171760   -0.991098   -1.316414
H      2.730424   -1.872971    0.199399
H      2.403433    1.584407   -0.893820
H      3.252862    1.790766    0.710997
H      1.507622    2.183811    0.574196
H     -2.567705    2.306335   -0.821627
H     -1.372735    2.066355    0.472689
H     -2.993538    1.204813    0.552074
H     -1.747523   -0.296535    1.619612
H     -2.080344   -2.051550    1.555101
H     -3.304175   -0.812137   -0.254918
H     -1.973529   -1.728615   -1.086267
H      0.345052   -1.785367    1.755116
H      0.085144   -2.088223   -0.013219
H      0.220813    1.250615   -1.332622
H      0.133659   -0.508645   -1.650284
H      2.169937   -0.123585    1.600801
H     -1.986401    0.419176   -1.931158
H     -0.030559    0.693813    1.163157
