48

C     -4.467542    1.875160   -1.366877
C      0.224221   -0.238197    0.416104
C      1.683927   -0.116210    0.787367
C     -0.453260   -1.311994    1.206976
C      2.418070   -1.420648    0.519477
C     -1.921986   -1.434147    0.829911
C      3.854537   -1.391633    0.822858
C     -2.672513   -0.132622    1.087175
C      4.784669   -0.489222    0.143531
C     -4.100479   -0.339312    0.681497
C      5.033335   -0.594492   -1.304628
C     -4.954960    0.877509    0.885572
C      3.903450   -0.333283   -2.233341
C     -4.493566    2.077783    0.115266
C      3.407971    1.064210   -2.087669
O     -5.374410    3.122082    0.401887
O      2.402281    1.369197   -2.792290
O      3.940602    2.020466   -1.274278
H     -4.204392    0.853289   -1.683547
H     -3.800878    2.651559   -1.811774
H     -5.482959    2.080620   -1.764240
H     -0.225753    0.766842    0.641252
H      0.168421   -0.391563   -0.672776
H      1.706223    0.013860    1.921895
H      2.171404    0.774035    0.405613
H     -0.002548   -2.294686    0.911776
H     -0.286958   -1.178909    2.277556
H      2.073647   -1.899900   -0.393571
H      1.965759   -2.122807    1.331487
H     -1.967058   -1.730167   -0.223664
H     -2.329106   -2.267192    1.445662
H      3.943946   -1.199964    1.940589
H      4.238596   -2.447947    0.685638
H     -2.544130    0.224248    2.107091
H     -2.243081    0.622957    0.401747
H      4.614377    0.600255    0.407237
H      5.818138   -0.653345    0.633048
H     -4.101898   -0.706618   -0.357031
H     -4.520221   -1.150612    1.310585
H      5.541010   -1.589305   -1.564436
H      5.853746    0.141011   -1.634241
H     -4.937800    1.137932    1.962830
H     -5.992420    0.626579    0.600205
H      3.054553   -1.007400   -2.182638
H      4.300118   -0.413476   -3.298805
H     -3.492840    2.382290    0.470390
H     -6.281566    2.803938    0.625091
H      3.749320    3.008580   -1.331507
