50

C      5.837808    0.102876    1.443900
C     -0.993381    2.347463   -2.518292
C     -0.848657    3.044029   -1.183202
C     -4.061618   -2.483582    0.599727
C     -0.664807    0.852514   -2.379358
C      3.398955   -1.190241    0.274516
C      2.274622   -1.779098   -0.264555
C      0.144748    2.369726   -0.273814
C     -0.952777    0.807483    1.367348
C     -4.741769   -1.583490    1.490086
C     -2.556626   -2.459137    0.695607
C     -2.123742   -0.136893    1.278371
C      2.149035    0.764440    0.658254
C     -0.078176   -1.820559   -0.943913
C      4.524713    0.761800    1.325435
C      3.357948    0.102933    0.750056
C      1.071846   -1.110211   -0.351866
C     -1.134416    0.447027   -1.029584
C      1.016879    0.164674    0.112815
C     -1.355644   -1.016845   -0.835117
C     -0.225361    0.952218    0.055674
N     -5.271530   -0.850231    2.210955
N     -1.966996   -1.223112    0.420695
O      4.387252    1.942575    1.732617
H      6.602189    0.843792    1.722546
H      5.815490   -0.738442    2.177716
H      6.129324   -0.285336    0.430956
H     -2.077866    2.378163   -2.774881
H     -0.448429    2.820158   -3.332763
H     -0.467962    4.068796   -1.381541
H     -1.813175    3.174277   -0.656835
H     -4.407369   -2.344939   -0.458143
H     -4.365697   -3.539342    0.851492
H     -1.107372    0.274600   -3.189800
H      0.457180    0.767369   -2.453338
H      4.330228   -1.727815    0.334332
H      2.343363   -2.813256   -0.635272
H      1.130035    2.408457   -0.819932
H      0.272818    3.007160    0.615139
H     -1.325534    1.813343    1.650886
H     -0.281600    0.475541    2.185412
H     -2.195175   -3.237501   -0.038008
H     -2.311733   -2.845083    1.720172
H     -2.998988    0.477015    0.947871
H     -2.364931   -0.485167    2.304655
H      2.096213    1.769311    1.022942
H     -0.201054   -2.774743   -0.374650
H      0.169923   -2.066930   -1.996488
H     -2.132558    0.943380   -0.850376
H     -2.035627   -1.369171   -1.638447
