55

C     -4.313976    3.844490    0.135099
C     -2.333855   -3.171642   -0.249127
C     -2.987232   -2.317693    0.798723
C      5.681701    2.622346   -2.154163
C      4.515769    2.492456   -1.393721
C     -0.893960   -3.422467   -0.048818
C     -2.380976    1.948465   -1.095620
C     -1.477539    1.046886   -1.638955
C     -2.023319   -1.937704    1.910914
C      0.099205   -0.611199    2.226245
C      1.482314   -0.475535    1.703939
C      6.455678    1.540638   -1.797982
C     -2.255840    0.726425    0.945995
C     -0.009698   -0.911301   -1.514488
C      3.653866    0.835482    0.319138
C     -3.721322    2.693946    0.854525
C     -2.771523    1.780931    0.214948
C     -0.980803    0.016099   -0.905316
C      4.660063    1.351985   -0.635239
C     -0.092724   -2.328257    0.540120
C     -1.359506   -0.164062    0.397400
C      0.811371   -1.632137   -0.467999
C      2.728526   -0.091776   -0.369807
C     -0.864920   -1.255272    1.252504
N      1.654885   -0.744637    0.297107
O     -4.060117    2.519879    2.045123
O      2.928552   -0.289529   -1.601109
O      5.825711    0.813663   -0.902923
H     -3.565065    4.296504   -0.577669
H     -5.234611    3.576537   -0.426731
H     -4.611409    4.657495    0.846598
H     -2.550416   -2.776197   -1.273321
H     -2.881334   -4.161440   -0.224916
H     -3.320377   -1.378977    0.319116
H     -3.917379   -2.779175    1.219984
H      5.911517    3.404939   -2.862087
H      3.675008    3.161346   -1.407508
H     -0.444528   -3.667503   -1.056866
H     -0.770153   -4.387356    0.527490
H     -2.779801    2.777888   -1.688743
H     -1.197599    1.225140   -2.690260
H     -2.564676   -1.251248    2.586399
H     -1.699244   -2.863770    2.466487
H     -0.312352    0.390490    2.546185
H      0.061194   -1.226747    3.149292
H      2.141241   -1.157828    2.323337
H      1.803751    0.593582    1.864102
H      7.436938    1.364691   -2.227692
H     -2.594675    0.637236    1.994661
H     -0.572324   -1.682022   -2.069303
H      0.679888   -0.436073   -2.212521
H      4.213736    0.309165    1.130295
H      3.144508    1.696463    0.785659
H      0.601885   -2.770493    1.287379
H      1.375945   -2.433127   -0.980008
