46

C      5.593577    0.285411   -1.408651
C     -3.603595   -2.220320    0.591089
C     -1.962927    2.310710   -0.917147
C     -0.903031    2.788614    0.045313
C     -1.567175    0.887476   -1.337939
C      2.982188    0.751209   -0.204249
C      1.774873    1.044108    0.396805
C     -0.811347    1.897873    1.239423
C     -0.844232   -0.404515    2.131126
C     -2.081871   -1.242816    2.039414
C      2.118143   -1.263959   -1.044816
C     -0.211973   -1.943374   -0.591550
C      4.479255   -0.679198   -1.559269
C      3.186199   -0.400542   -0.935428
C      0.886530   -0.975166   -0.437330
C      0.703154    0.178991    0.287617
C     -1.663479    0.052969   -0.104560
C     -1.577809   -1.422290   -0.310780
C     -0.611412    0.444738    0.908591
N     -2.185988   -2.040974    0.860059
O      4.685026   -1.720708   -2.228186
H      6.562790   -0.121281   -1.687905
H      5.655782    0.509754   -0.303643
H      5.338808    1.245808   -1.884226
H     -3.750288   -2.365225   -0.496196
H     -4.098792   -1.258531    0.856758
H     -4.019527   -3.035253    1.208326
H     -2.924526    2.175435   -0.343098
H     -2.087220    2.975178   -1.768350
H     -1.204759    3.805565    0.435521
H      0.032023    2.915163   -0.511623
H     -2.236619    0.500261   -2.120602
H     -0.505133    0.921202   -1.688437
H      3.842115    1.426152   -0.127683
H      1.658597    1.946834    0.955310
H     -1.810688    1.959913    1.762054
H     -0.081618    2.281393    1.963885
H      0.023292   -1.106041    2.230060
H     -0.898483    0.181078    3.060957
H     -2.075690   -1.934964    2.914228
H     -2.997691   -0.606126    2.185541
H      2.253833   -2.175114   -1.613970
H     -0.138393   -2.323821   -1.647656
H     -0.043686   -2.851168    0.034808
H     -2.656813    0.266727    0.364926
H     -2.221421   -1.661174   -1.198517
