56

C      6.380322    1.822404    0.173723
C      1.405581   -2.933211   -1.408908
C      1.745361   -3.188309   -0.007338
C     -6.242632    0.738324   -0.293992
C     -5.005811   -0.148683   -0.401887
C     -5.262153    1.916777   -0.185643
C      0.830007   -1.592618   -1.756638
C      3.488010    1.966964   -0.557035
C      2.159524    2.073407   -0.915159
C      1.224074   -2.273770    1.030342
C     -0.202882   -0.319386    1.599234
C     -1.660352   -0.483565    1.255361
C      3.046896   -0.060932    0.542768
C     -0.157493    1.296045   -0.971560
C     -2.887212    1.136405   -0.059819
C      5.376328    0.803715    0.551308
C     -4.279902    0.896906    0.404192
C      3.971242    0.902356    0.179182
C      1.254973    1.117746   -0.551619
C     -0.136825   -1.196825   -0.703501
C      1.716112    0.037277    0.189112
C     -0.954280    0.027948   -0.982848
C      0.701182   -0.966808    0.559064
N     -2.024328    0.020819   -0.022861
O      5.750626   -0.186499    1.220060
H      5.956686    2.813792    0.504131
H      7.343779    1.625061    0.641338
H      6.412872    1.873825   -0.935377
H      2.301736   -3.072096   -2.084900
H      0.668677   -3.696335   -1.801137
H      1.446656   -4.249987    0.248530
H      2.872366   -3.213943    0.092966
H     -6.755372    0.497457    0.661013
H     -6.877055    0.748742   -1.181973
H     -4.602952   -0.181691   -1.435143
H     -5.101075   -1.139774    0.069911
H     -4.998246    2.296731   -1.175266
H     -5.648465    2.643904    0.556301
H      0.315619   -1.681332   -2.740387
H      1.656535   -0.893087   -1.903177
H      4.214693    2.728107   -0.845563
H      1.849987    2.949131   -1.501893
H      1.931097   -2.091979    1.864834
H      0.349015   -2.779545    1.548465
H     -0.015517   -0.834998    2.548816
H      0.000849    0.762881    1.714593
H     -2.250250   -0.064479    2.075959
H     -1.859078   -1.587860    1.255186
H      3.397283   -0.919289    1.126439
H     -0.586842    2.084866   -0.311732
H     -0.153493    1.744890   -1.999170
H     -2.468242    1.992938    0.543738
H     -2.930453    1.515862   -1.102604
H     -4.445018    0.864619    1.497799
H     -0.842276   -2.029594   -0.500102
H     -1.419882   -0.113304   -1.985317
