62

C      5.514710    0.252623    0.336053
C     -3.145585   -2.712413    0.806839
C     -0.936815    2.071398   -2.122400
C     -0.535803    2.847973   -0.912439
C     -0.818744    0.587514   -1.994409
C      2.930715   -1.191552    0.038890
C      1.751547   -1.891038   -0.104857
C     -0.828690    2.215822    0.395774
C     -1.471016    0.164822    1.634236
C     -2.839822   -0.395753    1.386804
C      1.709057    0.781167    0.431241
C     -0.681061   -2.055512   -0.145215
C      4.191882    0.896035    0.461383
C      2.941470    0.167892    0.311708
C      0.542922   -1.257005    0.018903
C     -1.598748    0.189675   -0.790513
C      0.534360    0.115533    0.294328
C     -1.863189   -1.263591   -0.630056
C     -0.810924    0.721871    0.412346
N     -2.908350   -1.385574    0.366082
O      4.139675    2.120863    0.707004
C      0.645910   -0.508935   -0.727222
C     -0.802356   -0.085205   -0.709083
C      1.419483    0.415963    0.142206
C     -1.459689   -0.293705    0.574223
O      0.827190   -1.819805   -0.357196
O     -0.900479    1.231905   -1.089211
O      1.342169    1.645817   -0.088597
O      2.213262    0.000620    1.182823
O     -1.529012   -1.401235    1.169676
O     -2.059862    0.782341    1.209146
H      5.528814   -0.506699   -0.494528
H      5.802202   -0.306511    1.252139
H      6.265067    1.015287    0.041711
H     -2.775326   -2.950332    1.810796
H     -4.261487   -2.885339    0.806370
H     -2.765597   -3.427683    0.021856
H     -0.308408    2.398695   -2.998489
H     -1.980632    2.306074   -2.417341
H     -1.088586    3.826918   -0.953499
H      0.534150    3.124634   -1.019679
H      0.272884    0.354819   -1.874599
H     -1.157096    0.126282   -2.926529
H      3.872516   -1.678935   -0.056237
H      1.816454   -2.968280   -0.320831
H     -1.842562    2.529397    0.759229
H     -0.119030    2.581858    1.161288
H     -0.828046   -0.568178    2.180686
H     -1.598637    1.017909    2.352788
H     -3.553791    0.427523    1.163302
H     -3.185420   -0.854485    2.337414
H      1.691479    1.840942    0.643432
H     -0.467665   -2.884351   -0.852542
H     -0.880029   -2.557099    0.838807
H     -2.569799    0.730860   -0.762417
H     -2.219045   -1.674057   -1.594828
H      1.002958   -0.363320   -1.779976
H     -1.368650   -0.685539   -1.479290
H      1.466470   -1.870161    0.397956
H     -1.077963    1.801190   -0.279432
H      3.099022    0.474540    1.415096
H     -2.818452    0.675529    1.882010
