62

C      5.377232   -0.155147    1.061334
C     -1.571401    3.637920   -0.650351
C     -2.803318   -1.626025    1.457375
C     -3.064070   -1.870303   -0.009973
C     -1.722836   -0.551355    1.654008
C      2.441097   -2.029714   -0.533257
C      1.098524   -1.897451   -0.814364
C     -1.750784   -1.910916   -0.776268
C     -1.299590    0.190583   -2.016891
C     -1.032482    1.654268   -1.922291
C      2.460015    0.103980    0.437574
C      0.458745    1.545835    0.578080
C      4.585134   -1.189103    0.392040
C      3.155153   -1.030675    0.100462
C      1.091440    0.266124    0.163344
C      0.412201   -0.743771   -0.466232
C     -1.655080    0.212854    0.387505
C     -1.018358    1.576283    0.484031
C     -1.033074   -0.578449   -0.755214
N     -1.424121    2.261247   -0.704234
O      5.146478   -2.258713    0.050452
C     -0.057822   -0.902642   -0.396235
C     -0.469551   -0.167908    0.843168
C      1.122888   -0.411443   -1.082403
C     -0.715415    1.251454    0.717154
O      0.176973   -2.233619    0.035152
O     -1.632498   -0.816123    1.319392
O      2.139534   -1.137665   -1.172610
O      1.173710    0.846751   -1.651863
O     -1.884593    1.684153    0.999777
O      0.177896    2.222669    0.320321
H      6.432075   -0.228393    0.709185
H      5.018844    0.844606    0.763101
H      5.388227   -0.301401    2.164960
H     -2.585265    3.929808   -1.044987
H     -0.850770    4.239945   -1.241280
H     -1.559293    3.994243    0.400686
H     -3.723748   -1.244908    1.905404
H     -2.462444   -2.586068    1.893122
H     -3.470350   -2.921499   -0.095577
H     -3.817506   -1.226174   -0.455540
H     -0.762527   -1.109963    1.775456
H     -1.936581    0.103675    2.494918
H      2.990464   -2.927814   -0.800399
H      0.581308   -2.701156   -1.310984
H     -1.140020   -2.691338   -0.232481
H     -1.895993   -2.234422   -1.804997
H     -2.382879    0.055615   -2.255658
H     -0.702681   -0.204006   -2.878220
H     -1.558989    2.160082   -2.757857
H      0.061044    1.838775   -2.068883
H      2.987914    0.921530    0.941790
H      0.883597    2.314752   -0.134389
H      0.846386    1.866942    1.570541
H     -2.719550    0.406813    0.058829
H     -1.472167    2.092888    1.351542
H     -0.925916   -0.943283   -1.086180
H      0.320307   -0.330641    1.622797
H      0.808336   -2.130107    0.803235
H     -2.073952   -1.335095    0.592425
H      2.030064    1.411510   -1.627618
H     -0.189962    2.991989   -0.236512
