56

C      6.138540    1.692592   -0.453931
C      1.065267   -2.839920    1.967391
C      1.733832   -3.307230    0.720580
C     -5.527272    2.277684    0.511096
C     -4.334030    2.735918   -0.260770
C     -4.781601    1.022714    0.860629
C      0.502313   -1.444678    1.884598
C      3.246518    1.886882    0.013495
C      1.889481    1.981033    0.232452
C      1.222287   -2.779479   -0.555731
C     -0.223471   -1.131625   -1.746274
C     -1.690100   -1.204666   -1.476112
C      2.921796   -0.375886   -0.563190
C     -0.394542    1.116720    0.320160
C     -2.953422    0.697587   -0.873011
C      5.228267    0.549219   -0.637346
C     -3.496956    1.560902    0.223279
C      3.805250    0.676644   -0.399139
C      1.043376    0.898088    0.054745
C     -0.325918   -1.366370    0.658874
C      1.578002   -0.308388   -0.353437
C     -1.189993   -0.110623    0.583593
C      0.623110   -1.418489   -0.524345
N     -2.173986   -0.394451   -0.414479
O      5.685348   -0.550296   -1.004175
H      7.139248    1.512917   -0.882976
H      5.697141    2.644054   -0.848636
H      6.318702    1.906066    0.638395
H      1.762183   -2.856252    2.830972
H      0.222642   -3.512395    2.245430
H      1.655878   -4.424481    0.703397
H      2.833109   -3.114776    0.840783
H     -5.784120    2.937285    1.365836
H     -6.408790    2.130234   -0.159247
H     -4.444473    2.707578   -1.375605
H     -3.906655    3.717350    0.012065
H     -5.199093    0.143775    0.348380
H     -4.734117    0.893366    1.953962
H     -0.141508   -1.307122    2.792924
H      1.291020   -0.681578    1.958715
H      3.919563    2.722977    0.148015
H      1.490267    2.954610    0.557179
H      0.428319   -3.467132   -0.977917
H      2.025683   -2.792506   -1.320758
H      0.008697   -1.921271   -2.505475
H      0.080709   -0.172975   -2.231148
H     -1.933980   -2.294625   -1.308815
H     -2.219357   -0.933394   -2.406210
H      3.347482   -1.312823   -0.881586
H     -0.782861    1.745116   -0.500532
H     -0.450673    1.773106    1.239579
H     -2.436863    1.300901   -1.673389
H     -3.848831    0.263184   -1.408487
H     -2.825287    1.879575    1.018703
H     -0.995073   -2.237888    0.619485
H     -1.701059   -0.066757    1.591692
