43

C      4.831555    0.940620   -0.297149
C     -3.121349    0.306922   -1.981053
C     -1.636147    1.903389   -0.924344
C     -0.140883   -2.342656   -0.029766
C      3.009116    0.191364    1.084343
C      2.856528   -0.528562   -1.195836
C      1.730261   -0.554074    1.253740
C      1.378025   -0.238270   -1.181437
C     -2.142391    0.389557    1.642948
C     -1.244060   -0.807492    1.489482
C      3.569642    0.208850   -0.116361
C      0.792947   -0.108040    0.182317
C     -3.054953    0.372383    0.437608
C     -2.167338    0.475909   -0.783223
C     -0.524782   -0.869573    0.187369
O     -3.990210    1.369438    0.443825
O     -1.227629   -0.478948   -0.899812
H      5.616445    0.483095    0.344192
H      5.184396    0.975121   -1.333918
H      4.675476    1.979753    0.107533
H     -4.139799    0.597514   -1.721560
H     -3.101165   -0.728092   -2.351385
H     -2.791963    0.953255   -2.826370
H     -2.472840    2.544168   -1.330750
H     -1.377421    2.348914    0.046627
H     -0.849830    1.924021   -1.677507
H     -0.283495   -2.941118    0.873162
H      0.885252   -2.460901   -0.369050
H     -0.794671   -2.802272   -0.817939
H      3.497262    0.717188    1.898572
H      3.106514   -1.589376   -1.099618
H      3.259475   -0.160747   -2.165419
H      1.983725   -1.629019    1.209347
H      1.366252   -0.337742    2.259260
H      1.222856    0.718143   -1.761217
H      0.884572   -1.019936   -1.812510
H     -2.791829    0.199459    2.534912
H     -1.623824    1.332751    1.798004
H     -0.594935   -0.875981    2.352057
H     -1.923459   -1.709644    1.530973
H      0.555315    0.966781    0.377458
H     -3.513613   -0.648611    0.401295
H     -4.897027    0.932457    0.521530
