45

C      0.053079    1.175017    2.399322
C     -2.172093    1.809716    0.959983
C     -2.358378   -2.645899   -0.710723
C     -3.636474   -2.432723   -1.181500
C      5.012804    0.794390   -0.078002
C     -0.412853    1.313787   -0.717665
C      0.839041    0.573046   -1.016666
C      5.762608    0.710324   -1.231198
C     -0.211892   -1.956414    0.276712
C     -3.384777   -0.152871   -0.652356
C      2.631904    0.245071    0.566024
C      3.786143   -0.017847   -1.709431
C     -0.494322    0.132640    1.498327
C      3.750772    0.331288   -0.376588
C     -1.574426   -1.608302   -0.202348
C     -4.173983   -1.164928   -1.158037
C     -2.113955   -0.352666   -0.181966
C      0.498330   -0.816816    0.928024
C     -1.273931    0.738702    0.359369
N      1.398341   -0.203362    0.015272
O     -5.469958   -0.926447   -1.631208
O      4.991866    0.223523   -2.169069
H      0.409497    2.091124    1.859313
H      0.797988    0.802199    3.116019
H     -0.803635    1.553920    3.033354
H     -1.517656    2.569261    1.414605
H     -2.646084    2.322353    0.074546
H     -2.916277    1.398504    1.640674
H     -1.973115   -3.669214   -0.749097
H     -4.256233   -3.234528   -1.579923
H      5.397211    1.164988    0.863171
H     -1.025340    1.370102   -1.643754
H     -0.186627    2.369569   -0.452654
H      1.612449    1.286621   -1.375016
H      0.663280   -0.112649   -1.900440
H      6.805572    1.004850   -1.311179
H      0.349418   -2.322283   -0.627867
H     -0.319686   -2.852306    0.928691
H     -3.851695    0.847325   -0.650964
H      2.484541    1.267006    0.990109
H      2.907133   -0.479112    1.385052
H      2.996136   -0.424662   -2.329010
H     -1.228468   -0.480233    2.100874
H      1.127010   -1.252453    1.760406
H     -6.273267   -0.989610   -1.000008
