52

C      2.025732    1.546902   -1.381893
C      3.864054   -0.027194   -1.611439
C      0.913023   -2.102133    2.790430
C     -3.864772   -2.409477   -2.590978
C     -3.104646    4.003277    1.422608
C     -2.699306   -2.095720   -3.273430
C     -4.123829   -1.891948   -1.356964
C     -3.681326    3.169422    0.496898
C     -1.780379    3.779334    1.737289
C     -1.783091   -1.238992   -2.685593
C     -3.187868   -1.040481   -0.800178
C     -2.941431    2.156885   -0.078717
C     -1.046900    2.766689    1.159112
C      2.991769   -1.402664    1.607563
C      2.579914   -1.862493    0.231843
C      1.019713    0.143059    1.664264
C      2.737125    0.425153   -0.673391
C      1.792425   -0.956676    2.410450
C     -2.016897   -0.701254   -1.441651
C     -1.614011    1.923149    0.228889
C      1.855765   -0.765431   -0.471023
C      0.613225   -0.442809    0.351315
As    -0.718835    0.494699   -0.641793
H      2.825645    2.215390   -1.817886
H      1.445867    1.163485   -2.222473
H      1.456320    2.196838   -0.693636
H      4.515209   -0.754464   -1.102315
H      3.466634   -0.377343   -2.581623
H      4.483925    0.880036   -1.788390
H     -0.157628   -1.950445    2.553196
H      0.986039   -2.267167    3.905387
H      1.249415   -3.027496    2.305944
H     -4.579178   -3.082973   -3.059431
H     -3.693042    4.790544    1.865177
H     -2.515634   -2.524420   -4.262223
H     -5.037773   -2.123876   -0.795742
H     -4.726160    3.343190    0.246119
H     -1.296773    4.425838    2.468924
H     -0.879149   -1.022935   -3.265262
H     -3.427976   -0.639453    0.198619
H     -3.488226    1.543368   -0.806436
H     -0.011213    2.606666    1.417038
H      3.795480   -0.661793    1.584847
H      3.399205   -2.299657    2.131449
H      3.418361   -2.288276   -0.314023
H      1.842233   -2.700649    0.381861
H      0.156343    0.377714    2.284652
H      1.738452    0.980973    1.587202
H      3.250322    0.777563    0.235506
H      2.199012   -0.446209    3.319730
H      1.560059   -1.138706   -1.473062
H      0.194780   -1.467040    0.603238
