44

C     -4.303720   -1.213575   -1.761516
C     -5.426649    0.865614   -1.135011
C      3.912961   -1.816073   -1.590457
C      5.099917   -1.176223   -1.921227
C      1.599278    2.699941    2.432386
C      2.990656   -1.242181   -0.721119
C      5.327722    0.058115   -1.349185
C      2.796483    2.875953    1.805017
C      0.821967    1.580511    2.241862
C     -1.861198   -0.086716   -0.378812
C     -0.497949   -1.125523    1.423649
C     -4.271864   -0.055449   -0.792606
C     -1.752421   -0.402146    1.074728
C      3.237528   -0.015064   -0.163385
C      4.407394    0.637319   -0.477446
C      3.262796    1.909619    0.946952
C      1.282155    0.599991    1.375666
C      2.534163    0.777443    0.718237
N     -3.021975    0.592049   -0.799353
N      4.402610    1.798325    0.203073
O     -2.809513   -1.227746    1.479924
O      0.667702   -0.550352    1.064773
H     -5.227987   -1.828260   -1.660582
H     -4.290067   -0.802985   -2.810672
H     -3.389064   -1.801662   -1.651746
H     -5.162826    1.704761   -1.782272
H     -6.200463    0.264248   -1.646302
H     -5.904033    1.270232   -0.203464
H      3.745304   -2.779232   -2.043537
H      5.826652   -1.623398   -2.602707
H      1.222567    3.467234    3.121291
H      2.056514   -1.760758   -0.467618
H      6.227374    0.596144   -1.569527
H      3.415352    3.769307    1.957328
H     -0.108123    1.426048    2.746237
H     -1.693399   -1.027311   -0.958873
H     -0.986772    0.602241   -0.615046
H     -0.521432   -1.308453    2.559603
H     -0.517832   -2.189769    1.017365
H     -4.524667   -0.455657    0.222576
H     -1.789019    0.560465    1.612387
H     -2.885465    1.292369   -1.556748
H      5.131691    2.520212    0.190218
H     -2.822349   -1.213330    2.465940
