36

C      1.556641    1.900848   -0.083079
C      1.502491    0.472857   -0.513976
C     -1.625279    1.347772   -0.624354
C     -2.536035    0.530005    0.196462
C      0.929858   -2.105926   -0.828377
C     -0.221016   -2.349796    0.151064
C      0.352420    2.293613    0.731695
C      2.693952   -0.378146   -0.233215
C     -0.918926    2.478661    0.047759
C      2.226765   -1.838521   -0.195239
C     -2.170340   -0.824287    0.630481
C     -1.526963   -1.748085   -0.339287
Br     0.819420    4.073217    1.444220
Br     3.386951    0.100714    1.508437
Br    -2.165653    3.200779    1.380237
Br     2.259980   -2.462786    1.657377
Br    -1.277693   -0.842064    2.375340
Br    -2.748408   -3.155533   -0.948281
H      2.449591    2.026450    0.568813
H      1.711034    2.612670   -0.937906
H      1.351920    0.476385   -1.606419
H      0.705602    0.002803    0.087001
H     -1.000894    0.795108   -1.364209
H     -2.318983    1.900686   -1.354711
H     -3.582384    0.474278   -0.244729
H     -2.730726    1.119861    1.146007
H      0.553498   -1.384265   -1.556349
H      1.019303   -3.074054   -1.410512
H      0.056313   -2.031788    1.171300
H     -0.427043   -3.457169    0.261103
H      0.362444    1.661345    1.637222
H      3.443822   -0.212496   -1.025077
H     -0.773192    3.359597   -0.654969
H      3.045624   -2.408658   -0.697658
H     -3.142943   -1.342998    0.919402
H     -1.261151   -1.211075   -1.295573
