41

C     -4.813232    2.407163    0.383490
C     -4.276681   -2.519309   -1.329344
C     -5.820460    1.342771    0.001784
C      6.071284    3.102773    0.315011
C     -0.161275   -2.390683    0.694730
C     -0.435135   -1.339750   -1.424432
C      1.197656   -2.405974    0.532147
C      0.946445   -1.369141   -1.561301
C      5.446685    2.347374   -0.646739
C      5.525594    1.403650    1.901043
C     -3.340699   -1.392341   -0.897464
C      6.114312    2.630935    1.604457
C     -0.999076   -1.854326   -0.287108
C      1.770386   -1.892728   -0.603584
C      4.858776    1.117921   -0.341522
C      4.894596    0.633665    0.945340
C     -4.109013   -0.328406   -0.189745
C      3.843508   -0.810107   -0.269395
Cl     6.899199    3.542297    2.901480
N      4.202141    0.208658   -1.083499
O     -3.779068   -0.041856    0.980233
O     -5.164865    0.352829   -0.765113
O     -2.354886   -1.870390   -0.060759
O      3.140891   -1.920042   -0.742800
O      4.269410   -0.528377    0.930857
H     -3.902006    2.323122   -0.239936
H     -4.469961    2.193118    1.432623
H     -5.240353    3.426722    0.330142
H     -3.616495   -3.356326   -1.635493
H     -4.981448   -2.799552   -0.525925
H     -4.835444   -2.198940   -2.238920
H     -6.675205    1.783747   -0.555746
H     -6.220507    0.868513    0.921290
H      6.530474    4.051622    0.103113
H     -0.632864   -2.788350    1.578458
H     -1.053641   -0.906415   -2.226242
H      1.814708   -2.839246    1.333604
H      1.381759   -0.953827   -2.476364
H      5.390770    2.686361   -1.683218
H      5.561201    1.032936    2.921804
H     -2.977485   -0.950093   -1.840819
