24

C      1.027261   -1.242618    1.154925
C     -3.516529    0.380002    0.008423
C     -2.984657   -0.620830    0.787660
C     -2.701236    1.146573   -0.822598
C     -1.630243   -0.877838    0.754517
C     -1.346509    0.853438   -0.823978
C      0.675206   -0.417776   -0.091172
C     -0.778804   -0.137882   -0.059965
C      2.874300    0.671782   -0.038810
N      3.526106   -0.365269   -0.435588
N      1.464663    0.760187   -0.042635
O      3.638142    1.748054    0.413023
H      0.513662   -0.827847    2.046031
H      0.699516   -2.294114    1.053732
H      2.117754   -1.174142    1.381794
H     -4.558747    0.612442    0.003404
H     -3.643632   -1.188804    1.413905
H     -3.107953    1.940429   -1.443599
H     -1.213217   -1.665285    1.367254
H     -0.672847    1.420846   -1.452531
H      0.854980   -1.033033   -1.011546
H      3.123587   -1.235121   -0.794815
H      1.027183    1.693127   -0.009596
H      4.612015    1.853677    0.094611
