24

C      0.476977   -2.264889   -0.711660
C     -2.929700    1.202068    0.143483
C     -2.904359   -0.129575   -0.233948
C     -1.775363    1.856578    0.506793
C     -1.714230   -0.825158   -0.251788
C     -0.591038    1.118723    0.475968
C      0.730603   -0.962586    0.082109
C     -0.528666   -0.178001    0.114096
C      2.455058    0.837608    0.121390
N      2.769727    0.690410    1.374766
N      1.808973   -0.238111   -0.532539
O      2.739789    2.007324   -0.562666
H      1.501115   -2.683150   -0.883681
H     -0.016158   -2.058742   -1.659248
H     -0.059064   -2.957224   -0.068654
H     -3.873844    1.739406    0.153469
H     -3.839796   -0.592040   -0.508890
H     -1.799917    2.898011    0.801267
H     -1.700581   -1.866948   -0.547034
H      0.293012    1.655544    0.765801
H      0.951055   -1.284776    1.111784
H      2.576506   -0.160923    1.917422
H      2.119946   -0.513704   -1.500305
H      3.309954    2.710156   -0.107934
