43

C     -3.983216   -1.374079    0.617156
C     -1.724964    3.811912   -1.519326
C      5.465563    0.365750   -0.341153
C      5.270410    1.040655    0.853467
C      4.439501   -0.264366   -0.983490
C      4.003875    1.074079    1.404664
C      3.185679   -0.212596   -0.406871
C     -0.743993   -2.401187   -0.692346
C     -1.034441   -1.172742   -1.501694
C     -1.198843   -1.588583    1.554697
C      2.953334    0.445797    0.774953
C     -1.793493   -2.351991    0.415804
C     -2.232192   -0.517048   -0.799721
C     -0.756634   -0.190903    1.171975
C     -1.766434    0.429868    0.272588
C      1.612733    0.464278    1.330479
C     -1.318535    1.726373   -0.270882
N     -2.877926   -1.659313   -0.233744
O      1.401460    1.067282    2.412426
O     -0.134635    2.093173   -0.073666
O     -2.133821    2.567521   -0.990662
O      0.559659   -0.169470    0.692631
H     -4.613951   -2.296144    0.674907
H     -4.607812   -0.588364    0.114628
H     -3.733267   -1.081980    1.641400
H     -2.363339    4.008540   -2.408214
H     -0.655578    3.855630   -1.766599
H     -1.999380    4.616594   -0.783872
H      6.452984    0.337789   -0.774047
H      6.114210    1.523271    1.322745
H      4.613441   -0.788059   -1.919288
H      3.871432    1.600014    2.327943
H      2.389372   -0.731100   -0.954209
H      0.275453   -2.352530   -0.211139
H     -0.892767   -3.339545   -1.254252
H     -1.378680   -1.472820   -2.512175
H     -0.185537   -0.476306   -1.569150
H     -0.284405   -2.128836    1.884883
H     -1.870634   -1.577902    2.450942
H     -2.069852   -3.344311    0.762105
H     -2.826735    0.000468   -1.566652
H     -0.752334    0.395791    2.136819
H     -2.675706    0.655388    0.903153
