73

C      8.889271   -1.706750   -1.563857
C     -6.656317    2.254069   -1.619131
C      8.706503   -0.347012   -1.510903
C      7.902466   -2.582361   -1.197341
C     -6.856069    2.157799   -0.266059
C     -5.512753    1.750320   -2.187487
C      0.808653   -2.105731   -0.543827
C      1.644120   -0.857597   -0.536711
C      0.799467    2.849522    0.111471
C     -3.820301   -3.195913    0.267080
C      7.472615    0.177887   -1.068364
C      6.701599   -2.054559   -0.766921
C     -5.901007    1.551604    0.519416
C     -4.561431    1.138826   -1.351439
C      5.155128   -0.235862   -0.223107
C      4.818557    1.007532   -0.112225
C     -0.425230    2.167828   -0.491535
C     -0.449602   -2.051628    0.248212
C     -2.373688   -3.488187   -0.068370
C      2.024823   -0.347236    0.802614
C      1.369227    2.029737    1.232226
C     -3.830062   -1.983352    1.150141
C     -2.650767    1.347730    1.304237
C     -2.495855   -1.160229   -0.660434
C      6.472600   -0.678708   -0.697265
C     -4.732257    1.027959   -0.003370
C     -3.705403    0.392858    0.847734
C     -2.553504    2.606872    0.537706
C      3.590333    1.572591    0.327112
N     -1.580768    2.947280   -0.236136
N     -1.646195   -2.338490   -0.478273
N      2.395069    1.043555    0.742930
N     -3.350015   -0.859983    0.376658
O     -3.596232    3.510776    0.653504
O      3.649119    2.907788    0.327538
H      9.833118   -2.136469   -1.902095
H     -7.437328    2.742720   -2.215496
H      9.481250    0.350294   -1.798865
H      8.053370   -3.647439   -1.241748
H     -7.778075    2.570084    0.150267
H     -5.356825    1.827561   -3.257264
H      1.480429   -2.944272   -0.227132
H      0.574655   -2.321556   -1.619005
H      2.571558   -1.126774   -1.121010
H      1.166264   -0.083949   -1.193292
H      1.566962    3.040922   -0.634616
H      0.525594    3.847670    0.555036
H     -4.441970   -2.997748   -0.625087
H     -4.200738   -4.057496    0.861619
H      7.351102    1.236639   -1.034540
H      5.929582   -2.755285   -0.479832
H     -6.087752    1.491636    1.579811
H     -3.675865    0.774292   -1.893752
H      4.474101   -1.009330    0.042348
H      5.658725    1.707629   -0.422681
H     -0.497191    1.128198   -0.104943
H     -0.254256    2.099058   -1.582899
H     -0.589090   -1.060406    0.715358
H     -0.385647   -2.833229    1.072180
H     -1.905840   -3.904185    0.847718
H     -2.388200   -4.305453   -0.819908
H      2.790105   -0.925534    1.333737
H      1.128836   -0.453289    1.526838
H      0.623294    1.516400    1.850432
H      1.948675    2.707174    1.891487
H     -3.188271   -2.118718    2.043686
H     -4.857964   -1.740739    1.486788
H     -2.923438    1.708674    2.357779
H     -1.695680    0.842791    1.465351
H     -3.142016   -1.486528   -1.552688
H     -1.848472   -0.398669   -1.082757
H     -4.284416    0.163617    1.839140
H     -3.920682    4.102770   -0.109877
