39

C      4.063998   -0.001370    0.150446
C     -0.684850    1.926423    1.365775
C      0.062972   -2.469383    0.888003
C     -0.797244   -2.282275   -1.359392
C     -2.620068   -0.297895   -0.501076
C     -2.532023    1.155908   -0.114038
C      2.336862    1.538442   -0.665354
C      1.000621    1.989416   -1.042573
C     -1.860164   -1.064129    0.548698
C      1.561095   -0.609788   -0.041965
C      2.650346    0.355368   -0.205915
C     -1.172905    1.708961   -0.054889
C     -0.105907    0.996908   -0.852825
C      0.301862   -0.305301   -0.342622
C     -0.550462   -1.490744   -0.084069
H      4.087255   -1.094910    0.321992
H      4.385959    0.548487    1.067876
H      4.757284    0.208533   -0.687661
H      0.125578    1.184704    1.604828
H     -1.507241    1.836288    2.093129
H     -0.273384    2.958351    1.514527
H     -0.805957   -3.090654    1.265873
H      0.498645   -2.014431    1.779510
H      0.704826   -3.233230    0.388544
H     -0.055685   -3.094362   -1.458218
H     -1.790856   -2.759031   -1.236565
H     -0.734702   -1.648293   -2.259758
H     -3.679316   -0.620406   -0.434058
H     -2.280843   -0.502922   -1.515359
H     -3.210971    1.746092   -0.769825
H     -2.992763    1.249317    0.914033
H      3.138944    2.272125   -0.784731
H      1.082202    2.347122   -2.114531
H      0.831379    2.958729   -0.481908
H     -2.427560   -1.935926    0.932346
H     -1.599314   -0.465017    1.444129
H      1.872123   -1.579697    0.341010
H     -1.222022    2.746116   -0.511608
H     -0.557715    0.832473   -1.875626
