39

C      3.862295   -0.157545   -1.168670
C     -1.491151    2.927373   -0.058612
C      0.041699   -2.197894    1.883304
C     -0.177508   -2.564728   -0.515373
C     -2.507721   -0.643086   -0.448111
C     -1.962627    0.690629   -0.879020
C      2.284645    1.578948   -0.460022
C      1.014044    2.104402    0.053347
C     -1.839015   -1.203559    0.767458
C      1.514191   -0.631129   -0.212538
C      2.537883    0.315750   -0.629424
C     -1.396461    1.462170    0.258510
C      0.049147    1.119189    0.557271
C      0.375891   -0.272022    0.325092
C     -0.389588   -1.546372    0.584870
H      3.917384   -0.084864   -2.254333
H      3.995521   -1.238630   -0.900967
H      4.673931    0.392847   -0.644174
H     -2.546303    3.257236    0.193331
H     -0.780908    3.569841    0.488571
H     -1.453467    3.036175   -1.166992
H      0.997370   -2.745065    1.788360
H      0.034519   -1.485958    2.731674
H     -0.729894   -2.961530    2.117199
H     -1.115274   -3.184489   -0.656495
H      0.132135   -2.111150   -1.480214
H      0.594605   -3.324084   -0.271897
H     -2.469667   -1.341161   -1.288008
H     -3.575287   -0.493381   -0.183401
H     -1.191448    0.611430   -1.668103
H     -2.802451    1.263568   -1.320324
H      3.111058    2.265644   -0.733806
H      0.475866    2.670121   -0.786670
H      1.308841    2.877227    0.824132
H     -1.960136   -0.639652    1.687671
H     -2.356003   -2.193172    0.960400
H      1.781167   -1.687902   -0.385996
H     -2.041352    1.313110    1.174922
H      0.084069    1.251712    1.717037
