24

C      3.332139    0.317114   -0.103851
C     -2.160580   -1.219771    1.156108
C     -2.117865    1.079469    0.279161
C     -1.407108   -0.757756   -1.150920
C      2.227627    0.622574    0.878929
C      0.897286    0.646391    0.247647
C     -1.404265   -0.234295    0.287822
O      2.221842   -0.252684    1.951351
O      0.597418    1.342977   -0.743709
O     -0.089044   -0.157327    0.788527
H      3.636995    1.246842   -0.625959
H      4.213916   -0.016581    0.488444
H      3.045760   -0.495009   -0.812240
H     -1.460517   -2.020863    1.509497
H     -3.013332   -1.674253    0.649181
H     -2.553241   -0.636291    2.029726
H     -2.204382    1.517284   -0.743039
H     -3.143306    0.946363    0.675906
H     -1.611974    1.788701    0.978131
H     -2.391025   -1.146115   -1.418482
H     -0.655197   -1.575654   -1.260121
H     -1.066523    0.069382   -1.808274
H      2.422281    1.681307    1.223828
H      2.683095   -1.071805    1.684121
