27

C      1.147366   -1.761623    0.139264
C     -1.168418   -1.367486    1.076006
C      4.063302    0.658818   -0.429706
C     -4.020032    1.091080   -0.084332
C      0.363517    0.632646    0.420882
C     -0.363888    0.135435   -0.806539
C      1.785721    0.988460    0.322645
C     -1.809736    0.477146   -0.970951
C     -0.001300   -0.801648    0.337212
O      2.210354    2.016552    0.903138
O     -2.306968    0.506663   -2.121317
O      2.716715    0.243265   -0.388707
O     -2.633345    0.764754    0.090885
H      0.820761   -2.809676    0.333070
H      1.909814   -1.530482    0.901994
H      1.510983   -1.692656   -0.899527
H     -1.649283   -0.594149    1.717850
H     -0.799337   -2.155633    1.764175
H     -1.933328   -1.833007    0.430265
H      4.580521    0.479772    0.546057
H      4.134752    1.762676   -0.616875
H      4.635215    0.086565   -1.184256
H     -4.164992    2.053402   -0.573652
H     -4.527916    0.238363   -0.566364
H     -4.440504    1.157029    0.955310
H     -0.253214    1.328661    1.025734
H      0.193238   -0.074925   -1.723659
