19

C     -1.783738   -1.474846   -0.023044
C     -2.171201    0.850437    0.464163
C      0.940700    0.657770    0.533836
C      2.290239    0.444047   -0.148948
C     -1.306350   -0.247990   -0.031853
C      0.040008    0.025766   -0.517266
C      2.122887   -0.953187   -0.622875
O      2.996776   -1.834746   -0.800928
O      0.773981   -1.133080   -0.847810
H     -1.157408   -2.277804   -0.383342
H     -2.774389   -1.712500    0.328895
H     -1.695863    1.852545    0.296661
H     -2.334736    0.770268    1.552147
H     -3.163195    0.862855   -0.050171
H      0.969597    0.054130    1.459670
H      0.755851    1.719148    0.682170
H      3.128130    0.577754    0.536177
H      2.305467    1.104093   -1.036776
H      0.063245    0.715339   -1.390705
