50

C      1.444883   -1.554918    1.039954
C     -1.219676   -1.595880    1.757161
C      5.529414   -1.378084   -1.780679
C     -4.379930    0.161234   -3.520290
C      3.037947    2.030998    0.875428
C     -3.953397   -0.073973    1.498122
C      4.364295    2.354916    1.014091
C     -5.258958   -0.402049    1.206342
C      1.219737    0.635032   -0.019508
C     -1.661422    0.583765    0.757496
C      3.665939    0.195759   -0.502708
C     -3.513934    0.204970   -0.828766
C      0.681878   -0.243925    1.080638
C     -0.761860   -0.603604    0.709990
C      2.666013    0.928164    0.101937
C     -3.057205    0.234683    0.495490
C      5.325174    1.596111    0.393390
C     -5.662219   -0.418239   -0.108449
C      4.988113    0.507765   -0.372251
C     -4.813793   -0.119108   -1.154806
O      6.677088    1.913885    0.525874
O     -6.966745   -0.744812   -0.417761
O      5.936602   -0.270722   -1.006331
O     -5.276120   -0.151488   -2.462068
H      2.551934   -1.398064    0.989628
H      1.242750   -2.176660    1.956036
H      1.176468   -2.185321    0.175534
H     -0.978360   -1.250957    2.779963
H     -0.695736   -2.592616    1.645658
H     -2.295870   -1.863351    1.664656
H      4.769571   -1.118546   -2.529457
H      6.461158   -1.774022   -2.270897
H      5.141799   -2.185063   -1.109461
H     -3.434334   -0.413245   -3.404602
H     -4.848515   -0.185894   -4.463844
H     -4.183884    1.250310   -3.590220
H      2.260682    2.615017    1.355894
H     -3.569011   -0.038051    2.510310
H      4.652750    3.206360    1.611161
H     -5.915368   -0.634323    2.028243
H      1.060202    0.188937   -1.011087
H      0.649552    1.610704    0.010814
H     -1.334265    1.451456    0.143778
H     -1.623065    0.971301    1.819234
H      3.371090   -0.667631   -1.114475
H     -2.831565    0.442761   -1.630056
H      0.740487    0.213446    2.069515
H     -0.696468   -1.059702   -0.296538
H      6.948113    2.700279    1.077055
H     -7.631933   -0.972262    0.300861
