51

C      5.592663    0.894239    1.421092
C      0.779225    1.116340   -1.734903
C      2.185652    2.859243   -0.791984
C     -4.892275    1.557051   -3.027494
C     -5.203080    0.217265   -3.025739
C     -3.803128    1.996450   -2.291510
C     -4.432320   -0.685965   -2.293168
C     -3.060725    1.074296   -1.576788
C     -0.073586   -3.702657    1.487443
C      0.990303   -3.144798    2.181195
C     -2.787192   -2.566316   -0.733707
C      1.537399    0.332130    2.803404
C      4.301264    0.435092    0.810013
C     -3.351003   -0.275204   -1.558038
C     -0.911124   -2.908052    0.723337
C     -1.976751   -3.424619    0.021282
C      1.219964   -1.786504    2.112241
C     -2.522256   -1.216564   -0.774938
C      0.369266   -1.025188    1.343931
C     -0.706905   -1.549513    0.635298
C      1.884325    0.709566    0.436392
C     -0.187421    1.373339    1.346118
C      1.242185    1.742755   -0.414720
C      0.853030    0.360618    1.452639
O      4.313111   -0.599198    0.110295
O     -2.183319   -4.649276    0.083874
O     -1.194888    1.515110    2.096768
O      2.195598   -0.945141    2.691063
O      3.116853    1.103099    0.989261
O     -1.493793   -0.786034   -0.085392
O      0.106566    2.184775    0.259075
H      5.418143    1.663830    2.203930
H      6.054235   -0.000238    1.921198
H      6.218365    1.261379    0.589488
H     -0.106451    1.604887   -2.141678
H      0.674785    0.026325   -1.566550
H      1.597128    1.211956   -2.504499
H      2.609170    2.703333   -1.820811
H      3.053742    2.844351   -0.100773
H      1.711037    3.845930   -0.803333
H     -5.447612    2.308807   -3.572936
H     -6.051804   -0.110107   -3.601870
H     -3.505241    3.041769   -2.251555
H     -4.733768   -1.720178   -2.337740
H     -2.214983    1.442194   -1.009576
H     -0.297415   -4.762108    1.507916
H      1.639825   -3.771322    2.775614
H     -3.617447   -2.995514   -1.275956
H      0.733806    0.294359    3.570214
H      2.259533    1.134345    2.945108
H      2.097313   -0.230333   -0.152623
