42

C     -6.409180   -0.773706    0.715818
C      4.334638   -2.683990    0.530347
C     -5.500966   -0.713327    1.751971
C     -5.919040   -0.595852   -0.562502
C      4.113111   -1.592822    1.351528
C      3.747233   -2.681011   -0.718237
C     -4.149187   -0.484213    1.532761
C     -4.571396   -0.367142   -0.785031
C      3.325777   -0.537458    0.924183
C      2.962438   -1.624868   -1.139276
C     -1.698394   -0.524076   -1.162858
C     -1.450027    0.599145    0.922433
C     -0.344787   -0.302587   -1.407839
C     -0.092194    0.811574    0.657487
C      3.539393    3.585883    0.321250
C      3.574774    2.257093   -0.038041
C      1.540338    2.923087   -0.236843
C     -3.666065   -0.307394    0.253297
C     -2.236831   -0.064276    0.012768
C      2.738663   -0.535047   -0.324509
C      0.463271    0.356957   -0.516460
C      1.891886    0.567371   -0.819655
N      2.261087    3.959033    0.183861
N      2.341114    1.860511   -0.379013
H     -7.461486   -0.950696    0.870264
H      4.957801   -3.529527    0.856473
H     -5.866274   -0.850786    2.764948
H     -6.635518   -0.644683   -1.364499
H      4.568861   -1.580019    2.337745
H      3.905052   -3.523704   -1.380477
H     -3.428763   -0.435304    2.341852
H     -4.213474   -0.230805   -1.800810
H      3.145942    0.323230    1.561134
H      2.519430   -1.678306   -2.147068
H     -2.324432   -1.046002   -1.874953
H     -1.871392    0.959323    1.842961
H      0.043743   -0.672132   -2.330180
H      0.544751    1.333262    1.363662
H      4.383549    4.210816    0.651906
H      4.496716    1.653284   -0.031152
H      0.450984    2.955245   -0.432656
H      1.988853    0.573920   -1.936242
