42

C      6.067474    0.125016    1.705105
C     -3.891051   -3.139715    0.230980
C      5.834802    0.189200    0.346963
C      5.010959    0.076369    2.591970
C     -3.286065   -3.207507   -1.004642
C     -3.835720   -1.974304    0.959636
C      4.549169    0.206483   -0.159816
C      3.745211    0.094377    2.071197
C     -2.623778   -2.126379   -1.527374
C     -3.173370   -0.877365    0.448129
C      1.108314    0.746916    0.927167
C      1.854383   -0.386983   -1.029118
C     -0.179218    0.752680    0.416494
C      0.544338   -0.367603   -1.521932
C     -2.800752    3.581022   -0.415489
C     -1.859606    2.663193   -0.754720
C     -3.806610    1.629745   -0.736834
C      3.486571    0.158148    0.719258
C      2.126788    0.175387    0.201634
C     -2.575969   -0.966648   -0.788092
C     -0.475718    0.196432   -0.811992
C     -1.863983    0.223564   -1.325725
N     -3.977157    2.922174   -0.412736
N     -2.482290    1.477037   -0.948623
H      7.092071    0.113224    2.069110
H     -4.398030   -4.010124    0.599971
H      6.650153    0.228901   -0.382055
H      5.216485    0.026294    3.654955
H     -3.308533   -4.115277   -1.612422
H     -4.307837   -1.884805    1.949701
H      4.359603    0.257254   -1.233793
H      2.897711    0.056666    2.753059
H     -2.141904   -2.186525   -2.516774
H     -3.122945    0.063322    1.027713
H      1.328769    1.182896    1.884460
H      2.663376   -0.833593   -1.590470
H     -0.962975    1.204838    1.003242
H      0.378631   -0.819846   -2.490055
H     -2.660767    4.630994   -0.189268
H     -0.780082    2.855936   -0.853263
H     -4.595153    0.883314   -0.806046
H     -1.805300    0.175293   -2.449507
