77

C     -1.251960    1.919929   -2.279308
C     -2.390551    2.633854   -0.276547
C      2.217101   -2.019145   -0.462203
C      9.291095    1.950944    1.489404
C      7.142947   -3.082538    0.750159
C     -6.753592    2.903847   -0.246052
C     -5.062029   -3.989410    1.177545
C     -8.093182   -0.810786    2.416297
C     -0.026224   -0.120114   -0.340206
C      5.625113    1.624511   -0.497739
C      6.828812    1.718702    0.160997
C      3.863402    0.189508   -1.439468
C     -1.426338   -0.021205    0.194416
C      0.924597   -0.465450    0.777965
C      2.547760    0.292997   -0.796029
C      5.761690   -0.790917   -0.217076
C     -4.869682    0.931446   -0.240433
C     -4.143136   -1.263088    0.165052
C     -2.365225   -0.794362   -1.878172
C     -2.438573    1.598427   -1.434934
C      5.090831    0.344766   -0.686222
C     -3.873927    0.001420   -0.265134
C      7.484916    0.602722    0.616959
C      6.962608   -0.672802    0.437535
C     -6.153548    0.629509    0.209350
C     -5.432113   -1.588175    0.622031
C     -6.454881   -0.623483    0.641976
C     -2.485716    0.283973   -0.802022
N     -2.263037   -1.600776   -2.662673
N      2.285712   -0.709688    0.232808
O      8.701045    0.685102    1.281123
O      7.691058   -1.764802    0.934031
O     -7.128729    1.612748    0.213865
O     -5.814306   -2.825812    1.069649
O     -7.727236   -0.966867    1.093582
Cl     0.692413    0.000000    0.000000
H     -0.873080    1.035982   -2.793526
H     -0.503621    2.591856   -1.806666
H     -1.626627    2.592523   -3.154791
H     -2.925346    3.542109   -0.512383
H     -2.758610    2.191600    0.663691
H     -1.332019    2.907662   -0.079393
H      1.948898   -1.934496   -1.507179
H      1.438045   -2.601324    0.085396
H      3.172886   -2.513327   -0.231736
H      8.822883    2.422153    2.392099
H      9.202738    2.628601    0.622203
H     10.392283    1.861020    1.700904
H      7.041399   -3.333059   -0.314975
H      6.119244   -3.111301    1.221718
H      7.739650   -3.838138    1.303967
H     -6.363323    2.841017   -1.292580
H     -5.929062    3.313859    0.391541
H     -7.620229    3.582063   -0.230438
H     -4.529706   -3.949576    2.166920
H     -4.375915   -4.115805    0.345448
H     -5.739656   -4.888979    1.182058
H     -7.792239   -1.728469    3.000096
H     -7.636645    0.076786    2.869046
H     -9.202640   -0.665019    2.523709
H      0.283883    0.862431   -0.774441
H      0.062598   -0.875674   -1.138658
H      5.051687    2.440871   -0.896388
H      7.212091    2.732557    0.276301
H      3.937680    0.931939   -2.302069
H      3.937253   -0.796582   -1.988524
H     -1.713715   -0.988632    0.696679
H     -1.382536    0.699770    1.038060
H      0.651012   -1.385759    1.299205
H      1.037128    0.335851    1.517481
H      2.297472    1.288360   -0.358102
H      1.795784    0.175985   -1.662694
H      5.381819   -1.798180   -0.353261
H     -4.695015    1.926764   -0.568367
H     -3.435493   -2.088028    0.191878
H     -3.355656    1.815601   -2.066561
H     -0.692413    0.000000    0.000000
