32

C      4.987026    0.143297   -0.090869
C     -3.852493    2.072947    1.976093
C     -3.265168   -1.649340   -1.994081
C      0.129181    0.574164    0.888300
C     -1.110161    1.093924    1.284821
C     -0.956649   -0.774576   -0.727293
C      2.666601   -0.129615   -0.110085
C      0.223939   -0.362822   -0.118248
C      1.501849   -0.945673   -0.576974
C     -2.267270    0.688957    0.686385
C     -2.158777   -0.254516   -0.325390
N      3.911799   -0.708408   -0.588117
O      1.530033   -0.951124   -1.976328
O     -3.523792    1.138500    1.004168
O     -3.306059   -0.692939   -0.958922
H      4.897874    0.172189    1.000402
H      5.968995   -0.248531   -0.396409
H      4.800310    1.159139   -0.519626
H     -2.982319    2.673478    2.331740
H     -4.539824    2.826777    1.490143
H     -4.440375    1.657850    2.823299
H     -2.493781   -1.405792   -2.757596
H     -4.239499   -1.699715   -2.516268
H     -2.997242   -2.674949   -1.611961
H      1.033342    0.917471    1.384252
H     -1.149932    1.816875    2.066035
H     -0.872197   -1.518672   -1.525389
H      2.727577   -0.126429    1.015681
H      2.543168    0.911691   -0.455612
H      1.584393   -2.003481   -0.251834
H      4.009161   -1.670471   -0.226213
H      1.640289   -0.030208   -2.331079
