46

C     -6.012398   -1.395436    1.163459
C     -0.262526    0.576948   -0.622317
C     -0.417296   -0.747494   -0.024733
C     -1.546221    1.418771   -0.580843
C      0.716755   -1.671825   -0.132988
C     -2.661421    0.775246   -1.320578
C      2.016535   -1.272245    0.396322
C      6.135704    0.669620   -0.312761
C      6.307053   -0.698183    0.244780
C     -3.909730    1.664112   -1.271711
C      2.741068   -0.195385   -0.324011
C      4.873108    1.072531   -0.201253
C      4.901154   -1.230127    0.260742
C     -4.395292    1.919712    0.115150
C     -5.711399   -0.142028    0.377216
C      4.071022    0.008267    0.445357
O     -6.340870    0.130328   -0.669335
O     -4.729671    0.738005    0.796057
H     -7.086721   -1.621827    1.148952
H     -5.646271   -1.202779    2.190059
H     -5.386499   -2.188800    0.709822
H      0.387064    1.172015    0.131387
H      0.184039    0.597909   -1.592425
H     -0.645060   -0.611470    1.096087
H     -1.318576   -1.314770   -0.424714
H     -1.285556    2.376712   -1.090552
H     -1.815146    1.671883    0.451150
H      0.818563   -1.881359   -1.270441
H      0.407079   -2.700801    0.267560
H     -2.440902    0.645462   -2.399772
H     -2.899164   -0.203679   -0.821623
H      1.959522   -0.936623    1.481436
H      2.688127   -2.187914    0.493245
H      6.911114    1.278725   -0.754799
H      6.700245   -0.695570    1.278021
H      6.945087   -1.334665   -0.416094
H     -3.610833    2.615420   -1.763534
H     -4.668459    1.152875   -1.894831
H      2.287555    0.753167   -0.463321
H      3.046772   -0.560431   -1.349812
H      4.453006    2.023738   -0.520526
H      4.745037   -1.960303    1.083315
H      4.617394   -1.756993   -0.672553
H     -5.332460    2.555374    0.039625
H     -3.643826    2.471949    0.706333
H      3.853296    0.221935    1.499536
