36

C      1.140370   -2.841476    1.980551
C     -4.470840    1.069823   -0.733286
C     -3.767830    1.797100    0.203525
C     -3.870595   -0.042312   -1.277744
C      1.456336    1.895698   -2.041488
C     -2.498507    1.398716    0.567395
C     -2.581292   -0.436631   -0.900128
C      0.351485    1.396378   -1.384509
C      2.743540    1.568398   -1.668206
C     -0.262707   -1.533477    0.520916
C      1.906021   -0.719753    1.221948
C     -1.877959    0.290362    0.036633
C      0.542251    0.555690   -0.336871
C     -0.542155   -0.063808    0.470025
C      1.820929    0.220629    0.046375
C      2.918937    0.702347   -0.588357
N      4.220231    0.328592   -0.157268
N      1.051522   -1.832266    0.975453
H      1.146153   -3.836071    1.446741
H      0.279565   -2.853156    2.677126
H      2.117565   -2.761949    2.497239
H     -5.475911    1.332611   -1.062249
H     -4.258501    2.665627    0.617095
H     -4.403240   -0.615037   -2.004354
H      1.309486    2.567227   -2.878485
H     -1.995327    2.008926    1.307469
H     -2.116336   -1.303460   -1.326013
H     -0.664424    1.647647   -1.670291
H      3.622096    1.946470   -2.166850
H     -0.373732   -1.976963   -0.505211
H     -1.007786   -2.047745    1.159267
H      2.931904   -1.055080    1.364226
H      1.606257   -0.118433    2.115715
H     -0.390339    0.326101    1.519877
H      4.545029   -0.630695   -0.415972
H      4.847803    0.949968    0.389704
