47

C      3.503333   -1.076430   -2.982696
C      5.307372   -1.607172   -1.303476
C     -4.402819    4.221628    1.452879
C     -3.804860    3.455782    0.538113
C     -4.299865    3.748078    2.832178
C     -3.093145    2.255274    0.838170
C     -3.600164    2.579482    3.133007
C     -3.062431   -1.742789   -1.015181
C     -4.140136   -1.163684   -0.317996
C     -1.428953   -0.790456    0.516291
C      4.400240    0.743410    0.048043
C     -1.289157   -2.420877   -2.733435
C     -1.712517   -1.530417   -0.552087
C     -3.002148    1.858603    2.077552
C      3.345580    0.026493   -0.726107
C     -3.729859   -0.386964    0.828368
C     -2.510638   -0.237484    1.163583
C     -0.679703   -2.200909   -1.388218
C      4.465058    1.008898    1.312005
C      2.906006   -1.340262   -0.410888
C      1.546046   -1.796309   -0.581035
C      3.846288   -1.135542   -1.533275
Cl     3.287305    0.587986    2.508917
Cl     5.916697    1.872512    1.869668
F     -4.824089    0.166392    1.455399
N     -1.786444   -2.594741   -3.876703
O      1.164296   -2.718410    0.295098
O     -2.271570    0.636273    2.363137
O      0.546651   -1.495164   -1.465264
H      4.341217   -1.534420   -3.606367
H      3.334676   -0.021559   -3.319303
H      2.611536   -1.723963   -3.201509
H      5.211882   -2.733491   -1.424667
H      5.677361   -1.405624   -0.304710
H      5.899442   -1.253073   -2.144621
H     -4.927449    5.133675    1.271085
H     -3.837478    3.727843   -0.558752
H     -4.776467    4.349412    3.559688
H     -2.646682    1.699933   -0.007249
H     -3.477786    2.183566    4.111382
H     -3.269040   -2.309244   -1.896462
H     -5.131497   -1.273969   -0.628354
H     -0.429988   -0.604702    0.902880
H      5.285045    1.107672   -0.539252
H      2.566334    0.694460   -1.180883
H     -0.484539   -3.205590   -0.903527
H      3.457060   -1.754128    0.508350
