31

C     -3.195722   -1.698113    0.169874
C      4.232010    1.050057   -0.228811
C      2.859066   -1.085155    0.158554
C     -2.817350    0.656111   -1.413738
C     -1.781516   -1.226929   -0.156988
C      0.497061    0.550985    0.419854
C      1.855156    1.105739    0.155524
C     -0.484582    0.873272   -0.640738
C      2.937516    0.388091    0.033307
C     -1.831220    0.292638   -0.289238
O     -2.278670    0.871692    0.885050
H     -3.742861   -0.890114    0.713294
H     -3.188587   -2.580143    0.822345
H     -3.674146   -1.903504   -0.816457
H      4.704009    0.605755   -1.129860
H      4.910831    0.794642    0.627613
H      4.172913    2.135757   -0.270801
H      2.734341   -1.413479    1.230133
H      2.049817   -1.530311   -0.470963
H      3.814311   -1.581708   -0.164313
H     -2.452647    1.606827   -1.844821
H     -3.820895    0.887818   -0.972893
H     -2.849136   -0.172183   -2.139822
H     -1.158140   -1.496571    0.715447
H     -1.432107   -1.669009   -1.102371
H      0.146474    0.976702    1.382143
H      0.569432   -0.551679    0.536027
H      1.910896    2.181360    0.064381
H     -0.123631    0.430021   -1.601352
H     -0.643801    1.959332   -0.798245
H     -1.918821    0.432100    1.697160
