72

C     -1.202890    2.069054   -1.409817
C     -0.589173    3.040926   -0.468476
C     -4.506684   -0.997473   -1.419576
C     -0.999202    0.569515    2.913681
C      5.284001    0.910104    0.248933
C      4.443236    1.366332   -1.895449
C      0.245186   -3.501526   -1.074763
C      6.308785    1.832915    0.104497
C      5.468419    2.295665   -2.050819
C      1.484531   -3.166266   -1.541916
C     -2.696997    1.903948   -1.187081
C     -4.525595    0.494737   -1.655625
C     -3.243210   -1.391465   -0.725127
C     -1.195610   -0.875747    3.365156
C     -0.481127    2.599930    0.964274
C      0.375624    0.880640    2.491033
C     -0.146018   -1.332640   -0.154402
C     -1.959467   -3.441177    1.592888
C      4.342641    0.658732   -0.730150
C     -0.591453   -2.600054   -0.374506
C      6.409371    2.546332   -1.070212
C      1.118337   -0.964534   -0.617448
C     -1.893272   -3.235393    0.079097
C      1.900495   -1.884369   -1.298151
C     -2.777374   -2.423177    2.290365
C      1.886759    0.250228   -0.560016
C      3.296077   -0.332150   -0.493365
C      1.682463    1.353254    0.373146
N     -3.311281    1.047377   -2.146983
N     -3.082224   -2.794084   -0.520501
N     -2.421708   -1.437066    2.972131
N      0.567471    1.616084    1.210097
O      7.431833    3.476633   -1.230188
O     -4.163996   -2.604916    2.158137
O      2.773170    2.106894    0.307431
O      3.098574   -1.192163   -1.621828
H     -0.689005    1.117828   -1.545042
H     -1.137763    2.564933   -2.430969
H      0.380897    3.446550   -0.804359
H     -1.285136    3.937593   -0.451648
H     -5.395138   -1.278094   -0.821278
H     -4.634124   -1.491085   -2.411341
H     -1.713065    0.686982    2.086781
H     -1.400116    1.202153    3.740566
H      5.223640    0.355846    1.193342
H      3.720742    1.187475   -2.675055
H     -0.084123   -4.535158   -1.277266
H      7.030737    1.990252    0.917717
H      5.549163    2.854086   -2.972870
H      2.139663   -3.830196   -2.079318
H     -3.214081    2.895362   -1.221026
H     -2.829903    1.546309   -0.146052
H     -5.354816    0.778672   -2.344020
H     -4.785462    1.028452   -0.694979
H     -2.404647   -1.054301   -1.370959
H     -3.160580   -0.792226    0.204618
H     -0.350966   -1.447738    2.928744
H     -1.034236   -0.889424    4.461097
H     -1.502168    2.241187    1.212208
H     -0.375380    3.481192    1.654780
H      0.784050    1.537135    3.323363
H      1.067676   -0.000298    2.559812
H     -0.787368   -0.531216    0.344424
H     -2.162647   -4.459851    1.905855
H     -0.896213   -3.235311    1.926685
H     -1.828864   -4.326775   -0.258398
H      1.954616    0.729151   -1.595780
H      3.415002   -0.883690    0.434915
H     -2.706735    0.448600   -2.706601
H     -3.359860   -3.344056   -1.355076
H      8.347313    3.220238   -1.626825
H     -4.850796   -1.995674    2.542576
