54

C      4.385093    1.345285    0.642634
C     -2.429920   -1.312453    0.939924
C      1.515751   -1.551350    1.236082
C     -2.467746    1.604917    1.643649
C     -0.999945    1.677513    1.412811
C     -4.613339   -0.380858   -1.555495
C     -3.420969   -0.819384   -1.193674
C      1.954680    1.131797    1.249836
C     -4.389298    1.355005    0.170472
C      0.652921   -1.339120   -1.122723
C      3.244639    0.416247    0.829972
C     -3.212913    0.900824    0.516096
C     -5.194528    0.770730   -0.881518
C     -0.442408    0.483022    0.714202
C      0.952651    0.675587    0.268718
C     -0.455518   -0.436788   -1.609040
C      3.761193   -1.402984   -0.815401
C     -2.581070   -0.258098   -0.160619
C      1.473204   -0.751816   -0.028963
C     -1.233564    0.247904   -0.604501
C      2.864240   -0.326317   -0.451881
F     -1.466175    1.563591   -1.052742
O     -6.311394    1.237579   -1.177079
O     -1.217145   -1.112916   -2.531764
O      4.135621   -2.326536   -0.069373
O      4.267539   -1.426704   -2.126623
O      2.654882    0.583152   -1.497228
H      4.309816    1.985079   -0.258999
H      4.406384    2.037119    1.510107
H      5.325656    0.761260    0.677877
H     -1.628214   -2.022420    0.757477
H     -3.386064   -1.892780    0.918620
H     -2.370861   -0.888277    1.943681
H      0.714705   -2.342168    1.129425
H      1.274189   -0.962719    2.147326
H      2.453673   -2.076397    1.440555
H     -2.664077    1.024398    2.565556
H     -2.929309    2.607070    1.795041
H     -0.722210    2.589617    0.806993
H     -0.451510    1.804022    2.370031
H     -5.197461   -0.854108   -2.356764
H     -3.130797   -1.728317   -1.771332
H      1.721361    1.015498    2.302291
H      2.167659    2.222685    1.047192
H     -4.768109    2.236674    0.729066
H      1.330197   -1.615613   -1.956570
H      0.210896   -2.285425   -0.752275
H      3.524101   -0.351149    1.565520
H     -0.500567   -0.401380    1.349436
H      1.031138    1.224993   -0.691310
H      0.115862    0.321831   -2.265507
H     -0.863927   -1.988584   -2.791588
H      5.124602   -1.931447   -2.360081
H      3.476388    0.962712   -1.847188
