39

C      1.569791    0.247928    1.159060
C      6.121259    0.229991    0.760179
C      5.318523    1.203323    0.193807
C      5.711857   -1.075189    0.589790
C     -6.263263   -0.210704    0.664992
C     -5.595526   -1.336590    1.131119
C     -5.602926    0.852654    0.100992
C     -4.224133   -1.367922    1.014404
C      4.180449    0.932334   -0.500607
C      4.571282   -1.368605   -0.104713
C     -3.536020    1.861530   -0.572188
C     -2.180687    1.802628   -0.674376
C     -2.175470   -0.376570    0.351223
C      0.724404   -0.331231    0.051882
C     -4.223861    0.813617   -0.012830
C     -3.574886   -0.303230    0.450839
C      3.762601   -0.372555   -0.676301
C     -1.494280    0.668837   -0.206317
C      1.451109   -0.741521   -1.156541
N      2.632321   -0.737805   -1.389018
O      0.583148   -1.214531   -2.197000
O     -0.156714    0.688078   -0.343598
H      2.452229   -0.333355    1.425661
H      0.893079    0.255058    2.062115
H      1.804203    1.310213    0.981793
H      7.019590    0.496378    1.304860
H      5.615324    2.256923    0.310275
H      6.332485   -1.871557    1.030562
H     -7.338304   -0.161201    0.744745
H     -6.127992   -2.166281    1.572837
H     -6.119914    1.727287   -0.261279
H     -3.713918   -2.243247    1.377654
H      3.544188    1.691949   -0.948748
H      4.236990   -2.396120   -0.246330
H     -4.067226    2.734655   -0.932385
H     -1.605557    2.625778   -1.117094
H     -1.687878   -1.269130    0.724758
H      0.203832   -1.215173    0.517983
H      0.959891   -1.306646   -3.143232
