53

C     -5.084026    1.414346   -2.887890
C     -3.704583    2.348148   -0.905092
C     -4.791582   -1.756414    0.538854
C     -2.367764   -2.466174    1.023072
C      6.692082    0.459039   -3.158400
C      5.460369    1.032117   -3.384181
C      6.787805   -0.520798   -2.188281
C      3.464580    1.461816    1.964936
C      2.325892    1.031989    2.643054
C      4.333124    0.638201   -2.655486
C      5.669347   -0.899156   -1.478121
C      3.778360    0.867522    0.783170
C     -3.685987   -0.011254   -1.428867
C      1.874651   -0.548377    0.943594
C      0.506177   -1.659533    3.607488
C     -4.144042    1.192428   -1.727436
C      1.515536    0.031008    2.155432
C      4.421739   -0.338838   -1.686245
C      2.999684   -0.138494    0.252821
C     -2.778072   -0.367692   -0.340390
C      0.289289   -0.450659    2.857510
C     -3.064887    0.050443    1.047700
C     -1.941038    0.185427    2.023882
C     -3.332329   -1.381956    0.647836
N      0.693308   -2.650769    4.208495
O     -2.018645    1.010149    2.968342
O      3.312838   -0.746586   -0.948472
O     -0.793062   -0.573125    1.933181
H     -4.910930    0.670487   -3.683392
H     -6.131515    1.356320   -2.584549
H     -4.880104    2.416855   -3.261605
H     -3.526854    3.252761   -1.537009
H     -4.494396    2.551926   -0.139814
H     -2.787533    2.051153   -0.360153
H     -5.205665   -1.810108    1.569525
H     -5.376318   -0.991180    0.004494
H     -4.870302   -2.768376    0.106272
H     -2.195449   -2.497532    2.118260
H     -1.373632   -2.352624    0.514490
H     -2.789869   -3.424978    0.653002
H      7.567710    0.761747   -3.721107
H      5.314134    1.799777   -4.124281
H      7.763118   -0.971295   -2.012309
H      4.101108    2.247551    2.348893
H      2.071977    1.500057    3.583063
H      3.366362    1.085591   -2.829691
H      5.745761   -1.679315   -0.706952
H      4.656034    1.143705    0.183754
H     -4.048445   -0.823470   -2.096465
H      1.230738   -1.333776    0.570594
H     -1.709857   -0.448329   -0.639374
H     -0.009442    0.337058    3.578039
H     -3.925399    0.713189    1.241685
