27

C      2.750044    1.312094    0.291563
C      3.034821   -0.018332    0.504868
C      1.493018    1.668776   -0.166447
C      2.106092   -1.018124    0.277229
C     -0.813865    0.951591   -0.886735
C     -0.233269   -1.595513   -0.466310
C      0.575516    0.691858   -0.392285
C      0.877889   -0.657479   -0.171342
C     -1.829319    0.234582   -0.029066
C     -1.423716   -1.153770    0.341938
N     -2.001352    1.002542    1.197367
O     -2.452478   -2.075560    0.085656
Cl     0.685554    0.000000    0.000000
H      3.495239    2.069473    0.478122
H      4.019474   -0.285454    0.862537
H      1.215776    2.704124   -0.351289
H      2.313999   -2.068652    0.439898
H     -1.008142    2.036963   -0.868832
H     -0.897873    0.599691   -1.919571
H     -0.483599   -1.434261   -1.555556
H      0.025640   -2.642491   -0.355332
H     -2.796400    0.185011   -0.552139
H     -1.167093   -1.231009    1.415836
H     -2.980399    1.135048    1.466956
H     -1.412548    1.843118    1.240529
H     -2.407457   -2.254228   -0.887596
H     -0.685554    0.000000    0.000000
