36

C     -0.243017    2.838368    0.101321
C      4.487995   -0.229226    0.209646
C     -1.316157   -0.921818   -1.503119
C     -0.698443   -2.212475    0.456175
C     -3.250390    0.469119   -0.069234
C     -2.317609    1.645887   -0.072408
C      1.982366   -0.798918    0.008092
C      1.086950    0.390225   -0.182874
C     -2.511448   -0.634461    0.631790
C     -1.041396    1.557139    0.137921
C      3.303345   -0.510203   -0.627192
C     -0.271733    0.282133    0.413148
C     -1.121425   -0.857799    0.002848
O      3.396682   -0.508059   -1.833251
H     -0.874140    3.710134   -0.102918
H      0.516268    2.791021   -0.704412
H      0.236845    2.943305    1.091272
H      5.399533   -0.775374   -0.110999
H      4.678590    0.854295    0.275504
H      4.281827   -0.570173    1.254460
H     -1.244017    0.118374   -1.932043
H     -0.579320   -1.592467   -1.997053
H     -2.338186   -1.347732   -1.694446
H     -0.412417   -2.904899   -0.364175
H      0.045291   -2.158385    1.277786
H     -1.585231   -2.720515    0.950394
H     -3.577157    0.175480   -1.073655
H     -4.158637    0.720910    0.546485
H     -2.782709    2.610109   -0.265288
H      2.113817   -0.976797    1.087741
H      1.595079   -1.728076   -0.454874
H      1.602412    1.231842    0.374247
H      1.082975    0.748991   -1.236439
H     -3.029970   -1.589355    0.675031
H     -2.283550   -0.283269    1.677293
H     -0.173023    0.232667    1.532135
