36

C     -0.395153    2.457134   -1.265674
C      3.764736   -0.555281    1.156379
C     -2.544230   -0.575881   -1.076009
C     -1.008580   -2.406425   -0.617833
C     -1.770771    0.492481    1.724547
C     -1.424738    1.567169    0.763074
C      2.101346    0.711826   -0.437889
C      1.093452   -0.304853    0.008394
C     -1.663374   -0.886007    1.171648
C     -0.710328    1.338536   -0.339135
C      3.433496    0.518185    0.189322
C     -0.210587   -0.028220   -0.678814
C     -1.307622   -0.980404   -0.272491
O      4.318475    1.298883   -0.113378
H      0.017764    3.338956   -0.730944
H     -1.340165    2.832156   -1.761667
H      0.275738    2.118861   -2.078051
H      4.394821   -0.184768    1.980499
H      4.398540   -1.298958    0.598448
H      2.865054   -1.100281    1.506759
H     -2.419475   -1.027109   -2.084788
H     -2.608012    0.509004   -1.210359
H     -3.459664   -1.026577   -0.636387
H     -1.637576   -2.799244   -1.450207
H      0.040028   -2.593807   -0.901992
H     -1.223361   -3.095592    0.250259
H     -2.806667    0.652100    2.142749
H     -1.087856    0.594643    2.603560
H     -1.771820    2.570281    0.976822
H      2.235063    0.652316   -1.537201
H      1.718408    1.736210   -0.205328
H      1.437122   -1.331467   -0.069189
H      0.923419   -0.115518    1.109376
H     -0.927591   -1.492484    1.750493
H     -2.641533   -1.435024    1.304609
H     -0.058361   -0.150838   -1.769599
