34

C      4.906163    1.044660    0.800898
C     -3.365857    0.194285    0.680441
C     -2.100351   -0.518144   -1.318385
C      0.501444    1.107532   -1.414350
C      3.818452    0.950815    0.085263
C     -0.913522   -0.104229    1.892438
C     -0.177140   -1.888348    0.387464
C     -1.389746   -1.267658    1.009626
C     -0.956354    0.724675    0.595463
C      0.855500   -0.892997   -0.020928
C     -2.012055   -0.204021    0.135650
C      0.390005    0.524576   -0.032899
B      2.509051    0.416252    0.732617
O      2.008289   -0.955092    0.766456
O      1.289378    1.250061    0.786528
H      4.915017    0.755858    1.843071
H      5.838977    1.419916    0.359629
H     -4.145782   -0.382692    0.141761
H     -3.574225    1.269056    0.541502
H     -3.467823   -0.091217    1.762549
H     -2.983968   -1.209883   -1.447901
H     -1.241230   -1.036580   -1.742959
H     -2.390590    0.409557   -1.853210
H      1.382630    1.794958   -1.511928
H      0.725404    0.277639   -2.147934
H     -0.374597    1.704355   -1.718675
H      3.824313    1.242707   -0.953715
H      0.089373   -0.279999    2.281014
H     -1.628583    0.208945    2.650752
H      0.272749   -2.567066    1.148203
H     -0.535123   -2.520063   -0.474982
H     -2.062862   -1.969545    1.492828
H     -1.202786    1.774668    0.745537
H      1.195850   -1.182982   -1.058330
