52

C     -1.612435   -2.658617   -2.602267
C      1.736403    0.235102   -1.504623
C      3.760793   -2.071693    1.025737
C      3.268083    0.230740    1.432482
C     -0.840187   -1.361019   -2.279099
C     -1.897477    3.697659   -1.997753
C     -1.514902    0.303624    3.934809
C     -2.753693    2.629632   -1.852447
C     -0.600613    3.569932   -1.563916
C     -1.685479   -0.884401    3.263396
C     -1.004230    1.409092    3.286188
C     -2.287838    1.443043   -1.269423
C     -0.144200    2.414438   -0.995199
C     -1.339417   -0.959346    1.929523
C     -0.670744    1.296066    1.956167
C      1.621878   -1.186685    0.409044
C      1.041926    0.111498   -0.220032
C     -0.991497    1.319689   -0.837820
C     -0.831808    0.106523    1.248110
C     -1.066000   -1.131697   -0.805830
C     -0.454408    0.052751   -0.197717
N      3.061106   -0.889089    0.526455
O     -2.403918   -1.320095   -0.536542
H     -2.680449   -2.366777   -2.616732
H     -1.346134   -3.024504   -3.611534
H     -1.483904   -3.414611   -1.811678
H      2.629288    0.930512   -1.353556
H      2.260313   -0.708408   -1.847071
H      1.208214    0.666234   -2.353457
H      4.662727   -1.729083    1.545109
H      3.066495   -2.656627    1.660277
H      4.044749   -2.665224    0.131775
H      3.314797    1.194523    0.900021
H      2.418075    0.275680    2.139311
H      4.166774    0.062784    2.075552
H     -1.326372   -0.586026   -2.904819
H      0.193420   -1.443942   -2.596489
H     -2.187931    4.641514   -2.437873
H     -1.785598    0.376904    4.993765
H     -3.762760    2.701877   -2.179766
H      0.111897    4.393963   -1.660706
H     -2.095406   -1.760262    3.795959
H     -0.870946    2.352338    3.827828
H     -2.978273    0.636794   -1.167484
H      0.882203    2.335838   -0.650894
H     -1.505128   -1.938437    1.484335
H     -0.271064    2.161153    1.448916
H      1.255007   -1.331609    1.422819
H      1.540315   -2.028228   -0.273898
H      1.353610    0.868062    0.528646
H     -0.574422   -2.032343   -0.247364
H     -2.630840   -2.269241   -0.590236
