37

C     -2.584891   -1.057821    1.974846
C      2.714711    0.936506   -1.493593
C      3.748294   -0.160394    0.406424
C     -0.016197   -1.346682   -1.494478
C     -1.349142   -1.186566    1.091875
C      1.339598   -0.237647    0.252121
C      2.596449   -0.277844   -0.612125
C      0.090034   -0.172606   -0.590785
C     -1.118592    1.269051    1.044504
C     -2.321825    0.139186   -0.729339
C     -2.999349    2.282713    0.011943
C     -1.178092    0.055587    0.223996
N     -1.930448    2.264409    0.948557
N     -3.093026    1.123235   -0.795507
O     -0.143971    1.478950    2.055415
O     -2.590590   -0.914873   -1.620305
O     -3.816024    3.208215   -0.134208
H     -3.498180   -1.370150    1.427146
H     -2.452687   -1.786706    2.802175
H     -2.662144   -0.065749    2.433245
H      2.495380    0.666187   -2.552650
H      2.075885    1.762275   -1.120349
H      3.763723    1.346470   -1.511000
H      3.813821    0.898096    0.714162
H      3.465251   -0.770420    1.286702
H      4.701171   -0.503563   -0.053241
H      0.969098   -1.864244   -1.660884
H     -0.433598   -1.030963   -2.501268
H     -0.683386   -2.130588   -1.159261
H     -1.498973   -2.053722    0.464621
H     -0.480173   -1.264050    1.770912
H      1.366168   -1.155647    0.870915
H      1.479096    0.676091    0.863459
H      2.774679   -1.231847   -1.105039
H      0.208738    0.728590   -1.238481
H      0.191979    2.402338    2.263039
H     -2.942788   -0.655817   -2.533540
