43

C     -2.959194   -0.022637    1.373705
C      6.186448   -1.054232    1.101289
C      1.512950   -1.145148   -1.237860
C      3.166348    0.821615    2.091419
C      0.135943   -0.723623   -1.619414
C      1.830159    1.053088    1.754776
C     -3.068110   -1.066784   -1.258275
C     -4.417146   -0.334612   -1.248207
C     -0.710862    1.771709    0.640941
C     -2.126514    2.087317    0.314245
C      3.410194   -0.666312    0.281577
C      2.078261   -0.446210   -0.067809
C      3.964395   -0.034271    1.363537
C      1.285158    0.416616    0.671120
C     -0.112236    0.663851    0.318358
C     -0.774506   -0.459361   -0.442003
C     -2.093466    0.030867   -0.974330
C     -4.167198    0.936688   -0.527240
C     -2.852064    0.806510    0.113662
O     -4.900588    1.894710   -0.475344
O      5.290145   -0.212815    1.763643
H     -1.986940   -0.377997    1.726188
H     -3.438303    0.618185    2.136528
H     -3.672122   -0.846969    1.166447
H      5.718224   -1.948463    0.643523
H      6.972537   -1.357436    1.849029
H      6.736601   -0.468590    0.326984
H      2.185262   -0.881089   -2.106982
H      1.615120   -2.256772   -1.151885
H      3.609927    1.326069    2.955635
H      0.217938    0.223283   -2.206886
H     -0.294266   -1.510530   -2.274373
H      1.228186    1.721214    2.338464
H     -3.013534   -1.841543   -0.488238
H     -2.884434   -1.469314   -2.280275
H     -4.754283   -0.209055   -2.278028
H     -5.162208   -0.967125   -0.721108
H     -0.170585    2.553473    1.189086
H     -2.565017    2.736802    1.098372
H     -2.099036    2.610981   -0.676146
H      4.015992   -1.339817   -0.301673
H     -0.929669   -1.342316    0.178592
H     -2.007507    0.710043   -1.836087
