43

C     -3.984983    1.945066    1.641419
C      4.540083   -0.096158   -2.384903
C     -2.692268   -3.177659   -1.385584
C     -2.819191   -2.744258   -0.086154
C     -1.857169   -2.520319   -2.274118
C      4.317599    0.219999    1.773998
C      3.099856    0.304774    2.398062
C     -2.085334   -1.629800    0.305063
C     -1.140476   -1.412470   -1.849576
C      4.383091    0.115625    0.397535
C      1.957172    0.281958    1.606430
C     -1.078291    1.508448   -0.674873
C     -2.504484    1.691084   -0.228738
C     -1.251214   -0.962831   -0.559732
C     -0.476275    0.231090   -0.109340
C      3.241513    0.094971   -0.364551
C      1.980334    0.179127    0.232765
N     -2.650583    1.772690    1.191684
O      3.299463   -0.009162   -1.740911
O      0.842782    0.156533   -0.553624
Cl     0.687962    0.000000    0.000000
H     -4.552251    2.499483    0.848083
H     -4.463061    0.947736    1.735280
H     -4.097942    2.503562    2.588767
H      5.188961    0.707397   -1.991298
H      5.014297   -1.062129   -2.103121
H      4.390533   -0.012114   -3.478593
H     -3.254403   -4.047168   -1.719846
H     -3.468594   -3.248243    0.620487
H     -1.772363   -2.881485   -3.298619
H      5.199597    0.238639    2.398919
H      3.012503    0.388217    3.483649
H     -2.191082   -1.300823    1.317602
H     -0.500954   -0.937059   -2.591138
H      5.366100    0.050229   -0.065452
H      1.001239    0.351499    2.136453
H     -0.481120    2.349687   -0.314796
H     -1.019375    1.430827   -1.777042
H     -2.881744    2.624556   -0.685746
H     -3.098784    0.856438   -0.602116
H     -0.591217    0.315858    0.982599
H     -1.921963    2.276188    1.692073
H     -0.687962    0.000000    0.000000
