27

C     -2.595745   -0.232587    1.495645
C     -1.122246   -1.400889   -0.710578
C     -1.126890   -0.052049    1.308601
C      3.519322    0.240225   -0.161074
C      2.933232   -0.966503   -0.447788
C      2.751250    1.330293    0.126339
C      1.558473   -1.087509   -0.447725
C      1.361526    1.225413    0.130732
C      0.777599    0.009288   -0.158374
C     -1.330515    1.069648   -0.829976
C     -0.711007   -0.058553   -0.142864
O     -2.101093    1.837175   -0.204724
O     -1.123141    1.369493   -2.176990
H     -2.992611    0.533634    2.188185
H     -2.791341   -1.270647    1.883008
H     -3.142865   -0.116458    0.538287
H     -0.655005   -1.615274   -1.690430
H     -0.844619   -2.166662    0.040821
H     -2.225994   -1.478983   -0.824590
H     -0.519030   -0.771709    1.897545
H     -0.845648    0.955807    1.702134
H      4.597973    0.339585   -0.160032
H      3.516388   -1.851285   -0.680188
H      3.197557    2.295286    0.356132
H      1.059487   -2.020126   -0.668134
H      0.731521    2.079777    0.356628
H     -1.876578    1.803608   -2.720592
