43

C     -3.298067   -0.367627    1.332399
C      6.347902    0.309972    0.226708
C      1.308068    1.563311   -0.453959
C      3.416060   -1.912204    0.664432
C     -0.004253    1.738397    0.230465
C      2.022699   -1.939581    0.582089
C     -2.873310    1.631166   -0.670325
C     -4.232623    1.072302   -1.063061
C     -0.745930   -1.846396   -0.168888
C     -2.222883   -1.935034   -0.301929
C      3.455410    0.357565    0.026238
C      2.073089    0.375621   -0.068290
C      4.148258   -0.777235    0.391383
C      1.358562   -0.791109    0.214852
C     -0.088672   -0.750906    0.110783
C     -0.842620    0.510813    0.313575
C     -1.990748    0.458132   -0.636117
C     -4.098928   -0.422933   -0.942128
C     -2.919031   -0.643561   -0.101779
O     -4.836030   -1.227852   -1.450619
O      5.535130   -0.791277    0.485018
H     -4.353953   -0.715003    1.512371
H     -2.651232   -0.919747    2.056380
H     -3.286647    0.702655    1.585249
H      7.280401    0.181110    0.849765
H      5.888409    1.253276    0.546098
H      6.683916    0.332217   -0.849400
H      1.943746    2.455545   -0.230570
H      1.120436    1.610934   -1.562324
H      3.942880   -2.791830    0.946795
H      0.187884    2.177334    1.230908
H     -0.580132    2.507606   -0.334807
H      1.451609   -2.811861    0.793646
H     -2.548553    2.334515   -1.467426
H     -2.922318    2.219945    0.261815
H     -4.995547    1.435202   -0.334647
H     -4.509757    1.356840   -2.103150
H     -0.211075   -2.758919   -0.319990
H     -2.442275   -2.404213   -1.293156
H     -2.575392   -2.653713    0.466792
H      3.987275    1.271340   -0.197280
H     -1.258948    0.456580    1.352190
H     -1.662810    0.148623   -1.630105
