50

C     -4.275628    1.166869    1.157078
C     -0.488518   -2.999595    1.037175
C     -3.632175    0.570466    2.387890
C     -1.330206   -1.744922    0.895154
C      3.047426   -3.761637   -2.576098
C      2.846617   -3.260819   -1.307228
C      2.496703   -3.092379   -3.657827
C      2.094314   -2.090497   -1.128207
C      1.757835   -1.938993   -3.454210
C      0.740778    2.652305   -0.630747
C      1.553759    2.497155    0.639301
C     -2.224992    0.981826    2.611204
C     -0.626722   -0.606269    1.595995
C      1.551801   -1.432159   -2.196867
C     -0.258037    1.486950   -0.677854
C      2.523134    3.606027    0.704636
C      0.772263   -0.235645   -2.017784
C     -1.107517    1.572625    0.509065
N      0.512764    0.303207   -0.858027
N     -1.302829    0.645061    1.541686
O      2.164470    4.762011    1.046404
O      3.838809    3.376671    0.388068
O      0.232248    0.438202   -3.128904
O     -1.788943    2.675164    0.630752
H     -5.324026    0.742883    1.135613
H     -3.814561    0.867729    0.217203
H     -4.425844    2.259604    1.260306
H     -0.421289   -3.538195    0.049784
H     -0.959020   -3.735825    1.731781
H      0.507637   -2.780712    1.468401
H     -3.750723   -0.505014    2.477755
H     -4.223915    1.008830    3.251323
H     -1.455178   -1.515972   -0.176532
H     -2.321928   -1.993102    1.317085
H      3.639853   -4.680876   -2.707022
H      3.263008   -3.756816   -0.428856
H      2.635152   -3.458470   -4.668666
H      1.972171   -1.744143   -0.119741
H      1.341504   -1.439232   -4.312175
H      0.138694    3.562325   -0.546939
H      1.371926    2.712656   -1.512649
H      2.088826    1.547861    0.705304
H      0.861505    2.550323    1.505104
H     -2.219790    2.071108    2.832183
H     -1.860089    0.487935    3.530963
H     -0.517022   -0.870709    2.705882
H      0.425197   -0.605819    1.253300
H     -0.842227    1.629693   -1.623976
H      4.496671    4.161755    0.384639
H      0.296114    1.450560   -3.240724
