40

C     -3.214223    0.857751   -1.409717
C     -2.398496    1.154970    0.765026
C     -3.451093    2.213634   -1.471919
C     -2.622913    2.501654    0.730552
C      1.084881   -0.806410    0.746416
C     -0.138869   -0.644056    0.302209
C     -3.527742   -1.978659   -0.368590
C     -2.133288   -3.882360    0.107665
C      2.606419    0.635353   -0.569274
C      4.918914    0.286927    0.120843
C     -2.671536    0.282372   -0.268144
C     -3.344978   -3.337971   -0.227226
C     -3.161428    3.047040   -0.412397
C      3.951262    1.303774   -0.498141
C      2.003052    0.388831    0.777338
C     -1.185973   -1.629769    0.178085
C     -2.447449   -1.141788   -0.163674
C     -1.066511   -2.988582    0.303958
C      4.300507   -0.224118    1.368010
Cl    -4.738598   -4.389715   -0.493049
Cl     0.475624   -3.698996    0.701084
F     -3.385498    4.365012   -0.457342
O      3.839131    2.431222    0.337835
O      4.958333   -0.988270    2.117705
O      3.013194    0.126214    1.718925
H     -3.434935    0.184142   -2.232259
H     -1.972332    0.739114    1.678304
H     -3.880729    2.622338   -2.394162
H     -2.391309    3.163959    1.576094
H      1.420737   -1.736452    1.087261
H     -0.326169    0.406680   -0.029623
H     -4.478883   -1.540824   -0.632203
H     -1.978863   -4.943822    0.221538
H      2.776988   -0.366415   -1.060858
H      1.893583    1.189872   -1.230651
H      5.873218    0.809738    0.297606
H      5.032680   -0.513807   -0.643995
H      4.267661    1.570313   -1.508786
H      1.461247    1.298058    1.108133
H      4.074383    3.233047   -0.172575
