52

C     -0.972848    0.832994    3.875228
C      1.903739    1.126550    0.515801
C      3.985646   -1.054387    0.308015
C      2.959395   -2.260152   -1.499142
C     -0.317523    1.190011    2.510986
C     -2.436196   -2.919469   -2.008856
C     -1.918204    3.794414   -1.708661
C     -2.728623   -2.690221   -0.706529
C     -1.498241   -2.133622   -2.630912
C     -2.727366    3.037598   -0.889526
C     -0.610619    3.384252   -1.924914
C     -2.080676   -1.662589   -0.003093
C     -0.870361   -1.128971   -1.928695
C     -2.276630    1.893663   -0.284034
C     -0.125919    2.219349   -1.318060
C      1.543770   -1.285771    0.206886
C      1.046139    0.112397   -0.104717
C     -1.145674   -0.868933   -0.598554
C     -0.960572    1.501126   -0.514851
C     -0.830882    0.194608    1.551203
C     -0.433385    0.246833    0.131075
N      2.826677   -1.602512   -0.246599
O     -0.522716   -1.049183    2.164036
H     -0.376921    0.061716    4.401462
H     -1.006281    1.727172    4.512713
H     -1.998237    0.466991    3.690529
H      1.382582    2.091299    0.758619
H      2.533236    0.751605    1.347027
H      2.687168    1.482306   -0.229301
H      4.344837   -0.127014   -0.175002
H      4.028760   -1.033284    1.422522
H      4.837425   -1.790601    0.063318
H      3.313625   -1.586337   -2.326698
H      3.787407   -3.021121   -1.395482
H      2.061069   -2.828516   -1.765712
H     -0.520867    2.232285    2.340537
H      0.766951    1.089638    2.769131
H     -2.948506   -3.723102   -2.543577
H     -2.247036    4.701057   -2.198916
H     -3.461557   -3.293876   -0.196908
H     -1.269853   -2.330622   -3.690141
H     -3.739047    3.391662   -0.747163
H      0.035914    3.963425   -2.562233
H     -2.394355   -1.580241    1.004150
H     -0.146151   -0.548218   -2.481942
H     -2.937969    1.322890    0.345179
H      0.898087    2.002745   -1.567887
H      1.529275   -1.485664    1.307313
H      0.820504   -1.975372   -0.320712
H      1.247530    0.156069   -1.229982
H     -1.962643    0.207762    1.605941
H     -1.073879   -1.202640    2.967129
