44

C      4.278326    0.226009    0.540608
C      3.020860    0.188659   -1.440059
C      5.449951    0.258432   -0.183718
C      4.202158    0.221137   -2.183172
C     -2.970292    1.079584   -2.000548
C     -2.183915    0.221998   -1.271310
C     -3.659730   -2.140410    2.847817
C     -2.339849   -1.999750    2.511753
C     -2.350469    2.866249   -0.643577
C     -0.996334   -1.651073    0.494756
C      1.781648    0.155939    0.769009
C     -3.530277   -1.823978    0.727156
C      3.036075    0.190203   -0.064430
C      5.431658    0.256329   -1.562055
C     -3.075146    2.410841   -1.711559
C     -1.436051    0.665306   -0.177594
C     -1.554818    2.025798    0.105168
C     -0.521137   -0.217308    0.541270
Cl     6.929239    0.299634   -2.504215
Cl    -4.098333    3.448287   -2.681034
Cl    -0.669448    2.663855    1.500236
N     -4.405531   -2.031755    1.739808
N     -2.271492   -1.796702    1.152410
O      0.742595   -0.124424   -0.050738
N     -0.431375    0.038324    0.036619
O      0.868833    0.074816    0.437776
O     -1.111461   -1.134317   -0.076173
O     -0.992101    1.105332   -0.227462
H      4.274212    0.224628    1.644650
H      2.055744    0.164551   -1.926787
H      6.405117    0.284860    0.321261
H      4.152913    0.217202   -3.266522
H     -3.551927    0.716850   -2.859666
H     -2.148242   -0.822167   -1.584333
H     -4.021314   -2.315105    3.861191
H     -1.477535   -2.037644    3.183199
H     -2.409295    3.914264   -0.388140
H     -1.087923   -2.069451   -0.522526
H     -0.285462   -2.335824    1.012422
H      1.908030   -0.751420    1.442721
H      1.721859    1.073056    1.332539
H     -3.900026   -1.718375   -0.299026
H     -0.445838    0.061717    1.593036
H      1.666104   -0.084154   -0.170760
