28

C      2.253820   -2.020516   -0.172811
C      2.619668    2.697377   -0.197644
C      0.808726   -1.714055    0.118612
C     -3.763000    0.077824    0.459712
C     -3.340014   -0.237895   -0.816372
C     -2.852127    0.256850    1.472935
C     -1.991327   -0.366539   -1.040600
C     -1.495081    0.126119    1.242047
C     -1.048826   -0.188618   -0.024598
C      1.156392    0.747546    0.189751
C      0.382498   -0.356191   -0.375488
O      1.282895    1.033513    1.403133
O      0.507237   -0.375620   -1.776875
O      1.852984    1.611133   -0.681145
H      2.728486   -1.283167   -0.853344
H      2.839732   -2.059944    0.777947
H      2.380918   -3.017431   -0.643324
H      3.480442    2.927911   -0.833726
H      1.942081    3.582140   -0.187026
H      3.009754    2.489731    0.835813
H      0.202615   -2.462909   -0.438509
H      0.549845   -1.869298    1.194612
H     -4.835759    0.177766    0.627325
H     -4.079730   -0.372719   -1.592639
H     -3.165309    0.503272    2.473216
H     -1.647644   -0.613359   -2.034933
H     -0.785717    0.265489    2.046370
H      1.006442    0.441589   -2.091300
