28

C      4.853162   -0.746644    0.008440
C     -4.081491    0.688561    0.670907
C      2.904972    0.708035    0.637608
C      2.672171   -0.766273   -1.206099
C      1.609776    1.144653    0.438265
C      1.379934   -0.317179   -1.389301
C      3.456832   -0.252546   -0.179241
C     -3.143192    0.226177   -0.424650
C      0.814557    0.643344   -0.579898
C     -3.501836   -1.182964   -0.734396
O     -4.641061   -1.418303   -1.201199
O     -2.615575   -2.241471   -0.522642
O     -1.187076    1.250428   -2.268731
O     -0.945842    2.614276   -0.288041
O     -1.846889    0.226068    0.073889
S     -0.825600    1.198904   -0.829179
H      4.812408   -1.860053    0.146321
H      5.486410   -0.483264   -0.848457
H      5.253706   -0.251079    0.899905
H     -5.062175    0.899126    0.243171
H     -4.128316   -0.142128    1.411075
H     -3.609124    1.576263    1.155762
H      3.497787    1.133132    1.456435
H      3.095037   -1.522134   -1.855085
H      1.149658    1.908198    1.075815
H      0.755743   -0.715199   -2.193770
H     -3.253611    0.872785   -1.328218
H     -2.900363   -3.190714   -0.694526
