44

C      4.653192   -1.095296    0.646625
C     -3.028444   -3.237445   -1.742994
C     -4.256218   -2.617910   -1.705102
C     -1.943262   -2.645550   -1.080537
C     -4.407747   -1.418338   -1.014536
C     -1.784677    4.052410    0.978326
C     -2.695054    3.050188    0.891950
C      3.008455    0.436325    1.385256
C      3.214975   -0.187468   -0.965280
C      1.526176    0.330743    1.219668
C      1.768240   -0.693860   -0.837027
C     -0.896014   -0.993116    0.218553
C     -0.068845    2.535529    0.233793
C     -2.121312   -1.468594   -0.411110
C     -0.482722    3.768945    0.644326
C     -1.016960    1.499819    0.147078
C     -0.348409    0.274156   -0.312143
C     -3.367317   -0.822750   -0.362257
C     -2.312244    1.769733    0.475013
Cl     0.735071    5.055505    0.745038
N      3.797938    0.023953    0.298829
N      1.092455    0.373270   -0.139042
S     -3.780390    0.698003    0.451469
H      4.117174   -2.039664    0.354200
H      5.634180   -1.054464    0.113872
H      4.812028   -1.171390    1.749297
H     -2.862780   -4.167954   -2.265304
H     -5.090959   -3.082954   -2.220635
H     -0.991500   -3.169717   -1.136694
H     -5.384605   -0.963164   -1.007456
H     -2.079832    5.042119    1.300673
H     -3.715259    3.213496    1.137741
H      3.331964   -0.133056    2.307304
H      3.244730    1.500600    1.618181
H      3.739225   -0.985182   -1.543400
H      3.223778    0.706693   -1.623052
H      0.953295    0.995476    1.888888
H      1.257401   -0.706424    1.590494
H      1.879676   -1.590212   -0.156868
H      1.330875   -0.942992   -1.800318
H     -0.116059   -1.782862    0.082666
H     -1.071123   -0.969437    1.326825
H      0.984993    2.340989   -0.041499
H     -0.484088    0.271846   -1.440811
