33

C     -4.489927    2.565858    0.571459
C     -3.361138   -3.162458   -0.086074
C      5.672500    0.310357   -0.187884
C      5.173608    0.608415    1.085835
C      4.823414   -0.059045   -1.203215
C      3.816439    0.518423    1.281802
C      3.476048   -0.131160   -0.946419
C     -1.452117    0.809112   -0.779224
C      2.932334    0.147800    0.276330
C     -0.802879   -0.333775   -0.004632
C     -2.866837    1.014535   -0.469392
C      1.514421    0.068500    0.542447
C     -1.416916   -1.634350   -0.246126
O     -3.814302    0.242279   -0.734488
O      1.090300    0.340748    1.699453
O     -0.787251   -2.581102   -0.810211
O     -3.196253    2.206133    0.197306
O     -2.708888   -1.928204    0.116649
O      0.565975   -0.288276   -0.385688
H     -4.971212    1.806691    1.205349
H     -5.095629    2.802603   -0.323283
H     -4.410483    3.488118    1.207387
H     -2.680875   -3.792662   -0.681353
H     -4.263916   -2.953935   -0.677208
H     -3.636462   -3.633779    0.896828
H      6.732727    0.391648   -0.296903
H      5.825654    0.901636    1.896293
H      5.262198   -0.282370   -2.175154
H      3.386180    0.738388    2.244008
H      2.817948   -0.425572   -1.761246
H     -1.318720    0.557153   -1.874448
H     -0.885139    1.747282   -0.654883
H     -0.930802   -0.058992    1.076685
