19

C     -2.196866    0.231098    0.200328
C      1.916375   -0.422321    0.304168
C      1.100006   -1.450670    0.248433
C      1.533339    0.924398   -0.176713
C     -0.246322   -1.249393   -0.314694
C      0.069097    1.144243   -0.355632
C     -0.726886    0.065880    0.323024
H     -2.706314    0.257504    1.185743
H     -2.431218    1.125198   -0.413183
H     -2.603604   -0.648254   -0.362151
H      2.928069   -0.563266    0.725915
H      1.402462   -2.409354    0.601825
H      2.073774    1.182670   -1.130686
H      1.914598    1.670983    0.578622
H     -0.945533   -2.070090   -0.042111
H     -0.156888   -1.114914   -1.417781
H     -0.220688    1.128336   -1.447334
H     -0.272799    2.118042    0.090058
H     -0.430601    0.079911    1.402169
