19

C     -1.714393   -0.023854   -1.072179
C      1.882445   -0.269257   -0.110599
C      1.502949    0.982930   -0.188995
C      0.884149   -1.358771    0.009615
C      0.101414    1.459310   -0.169624
C     -0.320526   -0.833442    0.772276
C     -0.890153    0.390605    0.139319
H     -2.207942    0.850644   -1.540927
H     -2.458922   -0.757623   -0.699691
H     -1.070405   -0.522730   -1.807587
H      2.958272   -0.515764   -0.134359
H      2.272829    1.761320   -0.277099
H      1.308996   -2.204856    0.557609
H      0.572848   -1.665823   -1.029088
H      0.063323    2.299321    0.570072
H     -0.132246    1.900099   -1.172781
H     -1.097196   -1.626849    0.756811
H     -0.021577   -0.686693    1.823509
H     -1.633865    0.821433    0.864748
