33

C     -4.908937    0.859503    1.305029
C     -3.119567   -1.512679   -2.528532
C      5.653030    0.231449    0.130392
C      4.790207   -0.836838    0.238706
C      5.152277    1.517518   -0.017024
C      3.426415   -0.608212    0.197856
C      3.782102    1.738003   -0.058467
C     -1.311257   -0.405081    1.382776
C      2.922860    0.643971    0.052578
C     -0.777624    0.070979    0.041872
C     -2.791318   -0.313893    1.370930
C      1.498550    0.908153   -0.005243
C     -1.298926   -0.713898   -1.078085
O     -3.478704   -1.381750    1.414742
O      1.015021    2.050304   -0.145999
O     -0.528327   -1.410202   -1.777949
O     -3.469327    0.889170    1.311409
O     -2.642707   -0.751378   -1.445486
O      0.639817   -0.169293    0.101477
H     -5.332462    1.478078    0.512199
H     -5.241176   -0.176654    1.113876
H     -5.223157    1.249011    2.276797
H     -2.741545   -2.534129   -2.454410
H     -2.755564   -1.093520   -3.490758
H     -4.230389   -1.457488   -2.493406
H      6.732677    0.064591    0.158115
H      5.136861   -1.844371    0.351196
H      5.842091    2.355095   -0.098421
H      2.743221   -1.472005    0.286146
H      3.375934    2.725170   -0.176808
H     -0.999068   -1.450315    1.578616
H     -0.905357    0.196474    2.213681
H     -0.955654    1.154238   -0.093365
