29

C      3.419710    1.356943   -0.545114
C     -2.917204    0.252810   -2.317540
C      2.497470    0.360312   -1.215491
C      1.581135   -0.263552   -0.176633
C      0.755540    0.805034    0.487518
C     -0.168065    0.224175    1.519596
C     -2.096338   -0.457104   -1.276241
C     -1.159747   -0.743425    0.923502
C     -2.046652   -1.300215    2.005054
O     -1.519617   -1.496734   -1.609991
O     -3.279448   -1.091816    2.014496
O     -1.447510   -2.059243    3.000731
O     -1.967756    0.000150    0.006580
H      4.457374    1.257205   -0.945045
H      3.044221    2.399337   -0.753724
H      3.435634    1.215057    0.554112
H     -3.364190    1.142639   -1.811328
H     -3.729904   -0.366091   -2.696083
H     -2.312927    0.623361   -3.146575
H      1.877337    0.830188   -2.004765
H      3.120880   -0.397873   -1.713189
H      2.222275   -0.744096    0.614385
H      0.952779   -1.035591   -0.640581
H      0.172580    1.371372   -0.272474
H      1.460233    1.546674    0.939598
H     -0.694178    1.102055    1.993208
H      0.393453   -0.236312    2.365976
H     -0.676207   -1.615546    0.461745
H     -2.010877   -2.679712    3.601182
