30

C     -4.013854   -0.545517    0.244138
C     -2.181059    1.581245   -0.582584
C     -2.514046   -0.742162    0.213476
C      4.510236   -0.467899    0.346385
C      3.679621   -1.538969    0.523563
C      3.982892    0.721411   -0.140381
C      2.336418   -1.397547    0.209502
C      2.641837    0.861979   -0.453742
C     -0.338715    0.382141    0.630029
C      0.355149   -0.087737   -0.606748
C     -1.814953    0.576008    0.461012
C      1.810760   -0.229955   -0.269965
H     -4.475447   -1.539723    0.074258
H     -4.319729   -0.235413    1.269322
H     -4.382522    0.155863   -0.504705
H     -3.092650    2.146583   -0.264390
H     -2.468120    1.082559   -1.541691
H     -1.353956    2.281007   -0.814509
H     -2.204628   -1.165082   -0.754243
H     -2.260535   -1.412965    1.048770
H      5.559716   -0.563022    0.586851
H      4.062699   -2.494649    0.906581
H      4.652778    1.566123   -0.277138
H      1.654952   -2.242361    0.343965
H      2.232177    1.785998   -0.831920
H      0.122496    1.341707    0.943661
H     -0.192065   -0.385189    1.418218
H      0.270962    0.654653   -1.420248
H     -0.053288   -1.044094   -0.972366
H     -2.207125    0.955008    1.437351
