51

C     -6.392961    0.429818    0.047620
C     -5.280873    2.423405   -1.140342
C     -3.554229   -3.086571    0.749306
C     -2.556850   -1.553505   -0.996183
C      7.410104   -0.049090   -1.961385
C      6.929558    1.173272   -1.544222
C      7.043234   -1.155074   -1.210475
C      6.120902    1.275087   -0.427621
C      6.238901   -1.056205   -0.099335
C     -3.987630    0.720794    0.096512
C      4.891177    0.298706    1.510309
C      2.614693    1.224989    0.814733
C      1.481491   -0.647983    0.784351
C      0.134170    1.486679    0.153937
C     -5.175719    1.190399   -0.327016
C      5.760807    0.164491    0.314729
C      1.350384    0.707453    0.568141
C      3.444331    0.180173    1.163946
C     -3.881339   -0.503304    0.904130
C     -2.568776   -0.860900    1.509500
C     -1.424132    0.025383    1.352733
C     -3.082912   -1.693829    0.400824
O     -0.705192    0.283501    2.381385
O      2.733905   -0.909571    1.133486
O     -1.000329    0.643400    0.191859
H     -7.302010    0.841694   -0.391872
H     -6.453931    0.476150    1.172415
H     -6.203996   -0.635804   -0.257185
H     -5.145625    3.294799   -0.469047
H     -6.243618    2.454843   -1.662583
H     -4.470232    2.416155   -1.915134
H     -4.428087   -3.387336    0.128658
H     -2.714446   -3.802081    0.695009
H     -3.883534   -3.085445    1.824228
H     -3.294345   -2.063788   -1.682320
H     -2.503957   -0.489468   -1.313207
H     -1.594318   -2.056724   -1.136631
H      8.042055   -0.112679   -2.837376
H      7.168552    2.093282   -2.075680
H      7.422596   -2.118425   -1.540135
H      5.733645    2.240757   -0.087337
H      5.962449   -1.941213    0.477456
H     -3.135168    1.313560   -0.203530
H      5.180733   -0.444198    2.267445
H      5.067947    1.305727    1.936641
H      2.874023    2.268689    0.738413
H      0.668383   -1.360100    0.676798
H      0.232129    1.857750   -0.886586
H     -0.003121    2.321700    0.888150
H     -4.829402   -0.814204    1.409717
H     -2.689437   -1.285161    2.548403
