20

C      2.652586   -1.277029   -0.340664
C      0.696672    1.862865    0.182081
C      1.748526    1.003768   -0.006405
C     -0.590364    1.377841    0.241145
C      0.201975   -0.821878   -0.074231
C     -2.960389   -0.129156   -1.067609
C      1.502272   -0.348998   -0.135819
C     -0.863471    0.024476    0.114028
C     -2.281198   -0.472145    0.183285
N     -3.496502    0.123458   -2.064709
O     -2.955446    0.138228    1.251415
H      2.240599   -2.285328   -0.530185
H      3.261677   -0.898258   -1.187885
H      3.263672   -1.249203    0.594021
H      0.900737    2.911981    0.281297
H      2.776405    1.339700   -0.059323
H     -1.418332    2.055156    0.389628
H      0.021597   -1.879180   -0.176442
H     -2.272810   -1.554683    0.324716
H     -2.428204    0.078384    2.081656
