52

C     -3.324072    0.166456   -2.459788
C     -1.075979   -0.752765   -2.548646
C     -2.302902   -0.943278    3.268321
C      3.168288   -3.674588    0.993676
C      3.595790    3.808487   -0.771098
C      2.697841   -3.628985   -0.287862
C      2.975926   -2.586677    1.815184
C      4.134665    2.561697   -1.038403
C      2.255416    3.944300   -0.446904
C      2.035984   -2.504792   -0.756905
C      2.316964   -1.476790    1.336378
C      3.348495    1.404580   -0.990339
C      1.500391    2.783889   -0.406390
C     -2.738711    0.866384    1.645791
C     -2.947864    1.152179    0.179133
C     -0.960009   -0.759922    1.165570
C     -2.186643   -0.374277   -1.586715
C     -2.311230   -0.552838    1.802433
C      1.824907   -1.387416    0.048423
C      2.027801    1.539123   -0.670818
C     -1.774978    0.732947   -0.674334
C     -0.640633    0.392663    0.239620
P      0.951721    0.079465   -0.590757
H     -4.310056   -0.113186   -2.053910
H     -3.222170    1.273756   -2.594576
H     -3.263916   -0.260118   -3.483312
H     -0.475584   -1.580916   -2.130432
H     -0.477019    0.125470   -2.852656
H     -1.502599   -1.160094   -3.510718
H     -3.340093   -0.773362    3.642412
H     -1.961527   -1.974871    3.370441
H     -1.638111   -0.204824    3.800881
H      3.680229   -4.534721    1.368360
H      4.172615    4.718132   -0.799384
H      2.867816   -4.509526   -0.912148
H      3.349455   -2.627404    2.827024
H      5.178942    2.517058   -1.283966
H      1.799680    4.908433   -0.231228
H      1.694976   -2.540086   -1.771878
H      2.188064   -0.652738    2.006418
H      3.778383    0.433412   -1.200880
H      0.456001    2.845699   -0.158837
H     -3.749083    0.967676    2.126939
H     -2.096278    1.602580    2.152036
H     -3.862200    0.566065   -0.113910
H     -3.199550    2.224428    0.025355
H     -0.210766   -0.723185    1.984456
H     -0.862621   -1.730121    0.669103
H     -2.558862   -1.272543   -1.057516
H     -3.034837   -1.197733    1.293099
H     -1.466321    1.594210   -1.292142
H     -0.505739    1.288666    0.915399
