37

C      5.476290   -0.833686    0.113496
C     -0.824118   -0.034539   -2.265167
C      4.620321    0.308463    0.616702
C      3.265495    0.271162   -0.074737
C      2.552318   -1.030091    0.207064
C     -5.703250    0.308354    1.435264
C      1.215366   -1.089188   -0.470511
C     -4.950498   -0.789559    1.098007
C     -5.171923    1.545759    1.162839
C      0.293324    0.000262   -0.032121
C     -3.697403   -0.631923    0.502666
C     -3.948538    1.704530    0.581533
C     -1.039113   -0.136714   -0.763010
C     -3.153065    0.598575    0.224205
O     -1.929384    0.824108   -0.358387
H      5.530405   -1.639629    0.857150
H      6.504121   -0.426776   -0.077270
H      5.024044   -1.223504   -0.825727
H     -0.697635   -1.039768   -2.717393
H     -1.694128    0.428325   -2.751223
H      0.057298    0.578834   -2.466327
H      5.094423    1.279956    0.351266
H      4.442323    0.224852    1.712143
H      3.438752    0.430125   -1.150634
H      2.644121    1.104212    0.335415
H      3.192196   -1.853096   -0.185779
H      2.442530   -1.199357    1.289821
H     -6.675051    0.180158    1.897041
H      1.405687   -1.044004   -1.576113
H      0.702387   -2.057707   -0.253490
H     -5.333928   -1.789682    1.296436
H     -5.788316    2.415258    1.439511
H      0.076960   -0.103077    1.044352
H      0.712231    0.997242   -0.249889
H     -3.134747   -1.533747    0.251949
H     -3.541450    2.696294    0.372063
H     -1.408043   -1.143693   -0.571147
