28

C      4.395107   -0.716666   -0.530903
C     -1.431869    1.610774    0.725519
C      2.205057   -1.046735    0.650963
C      2.230107    0.291343   -1.284743
C      0.836221   -0.817155    0.803851
C      0.869824    0.518757   -1.130755
C     -3.524168   -0.184797    0.469131
C     -2.120628   -0.779480    0.714573
C      2.917697   -0.496768   -0.391538
C      0.137947   -0.019356   -0.096784
C     -3.307446    0.526538   -0.832099
C     -1.286064    0.253977    0.033379
O     -4.151158    1.210620   -1.487546
O     -1.964189    0.315442   -1.242216
H      4.937179    0.241417   -0.737519
H      4.593229   -1.454566   -1.327021
H      4.793560   -1.133374    0.419474
H     -0.865265    1.539968    1.682317
H     -2.466232    1.942036    0.833491
H     -0.811543    2.301171    0.071913
H      2.754499   -1.665814    1.343894
H      2.798642    0.718529   -2.106162
H      0.296173   -1.248130    1.623469
H      0.332903    1.143154   -1.831696
H     -3.821573    0.519542    1.270712
H     -4.291961   -0.970892    0.389948
H     -1.952543   -0.861770    1.786534
H     -2.103506   -1.737765    0.179814
