42

C     -5.537704    0.682963    0.433893
C     -0.024883   -0.117898    0.822047
C      1.357909    0.413612    1.196213
C     -1.081290    0.881630    1.162636
C      2.411169   -0.605085    0.841078
C     -2.490119    0.404909    0.815524
C      3.756607   -0.027081    1.230454
C     -2.636248    0.120811   -0.632012
C      4.883858   -0.970277    0.911066
C     -3.919719   -0.383968   -1.141240
C      5.006708   -1.332970   -0.530675
C     -5.148787    0.415905   -0.986509
C      5.260388   -0.170406   -1.406101
O     -6.227433   -0.252796   -1.610569
O      5.293519   -0.305660   -2.646940
O      5.463921    1.073435   -0.864101
H     -5.364822    1.717920    0.776040
H     -5.043587   -0.028570    1.094354
H     -6.668629    0.569814    0.534365
H      0.023670   -0.371982   -0.266568
H     -0.185232   -1.068279    1.371183
H      1.540836    1.380565    0.667492
H      1.358326    0.634447    2.289730
H     -0.863618    1.837449    0.628283
H     -1.001994    1.102174    2.242224
H      2.353091   -0.830414   -0.226268
H      2.234036   -1.521732    1.405571
H     -2.715628   -0.493088    1.401137
H     -3.128727    1.287480    1.124996
H      3.760011    0.081147    2.354931
H      3.912229    0.966340    0.823540
H     -1.856691   -0.658157   -0.927492
H     -2.410555    1.072577   -1.191899
H      5.821833   -0.452926    1.248257
H      4.763590   -1.873752    1.535900
H     -4.071864   -1.441416   -0.751954
H     -3.758098   -0.576922   -2.256953
H      5.848226   -2.059852   -0.635731
H      4.095479   -1.832915   -0.932195
H     -5.095856    1.398158   -1.519987
H     -5.920458   -0.474240   -2.521936
H      6.006537    1.809051   -1.331317
