57

C      1.106468   -2.196208    0.095957
C      1.212796    5.950399   -2.095877
C      3.849007   -3.113291   -1.107330
C      4.716975   -2.317986    0.945274
C      4.199044   -4.390324   -0.758804
C      5.075310   -3.591027    1.312354
C      2.376929    3.446458   -1.525766
C     -4.220699   -0.833809    0.456073
C      2.978462    2.211502   -1.246829
C     -5.685658   -0.747861    0.152662
C      0.234064    2.548026   -1.077267
C     -1.191145   -0.214052   -0.142554
C      1.310511   -0.786658   -0.278876
C      4.097378   -2.061358   -0.272668
C      4.808235   -4.630869    0.442195
C      1.020211    3.619739   -1.443873
C      0.253413    0.117780   -0.419301
C      0.804543    1.313024   -0.794982
C     -3.767453    0.315474    1.296953
C      2.179174    1.160178   -0.884479
C     -1.398817   -0.117052    1.302327
C     -6.511767   -0.789780    1.378815
C      3.763630   -0.669246   -0.547482
C     -3.932183    1.645739    0.696709
Cl     5.278390   -6.251045    0.940906
N     -2.479851    0.104101    1.872157
N      2.452544   -0.140871   -0.560738
O     -0.274274   -0.291061    2.151672
O     -7.734345   -0.425798    1.351210
O     -6.019980   -1.216350    2.587934
O      4.749696    0.105598   -0.788958
O     -4.954783    2.026128    0.114593
O     -2.842158    2.528166    0.805547
O      0.399261    4.830501   -1.714331
H      0.071040   -2.340297    0.537295
H      1.821008   -2.587856    0.809873
H      1.115713   -2.831083   -0.825874
H      1.787803    5.653597   -2.972630
H      0.629632    6.865207   -2.182990
H      1.916715    6.094252   -1.229185
H      3.367564   -2.913865   -2.053836
H      4.929452   -1.501444    1.635159
H      3.993849   -5.224919   -1.437982
H      5.565845   -3.811368    2.272507
H      2.977683    4.282315   -1.810994
H     -4.057128   -1.814538    0.980135
H     -3.677345   -0.867244   -0.528978
H      4.043419    2.135885   -1.328361
H     -5.933874    0.106405   -0.498125
H     -5.953157   -1.687344   -0.426398
H     -0.834400    2.639217   -1.005859
H     -1.368357   -1.260246   -0.497756
H     -1.787675    0.516435   -0.718790
H     -4.470077    0.362999    2.222257
H     -0.442284   -0.639150    3.086025
H     -6.608967   -1.817008    3.175125
H     -2.939385    3.501880    0.556159
