30

C     -2.174583    0.691842   -1.595111
C     -3.868532   -0.271822   -0.136860
C     -2.039720   -0.511541    2.014743
C      4.844672    0.642834   -0.266634
C      3.853787    1.443709    0.269551
C      4.434064   -0.596027   -0.705470
C      2.543248    1.034153    0.360585
C      3.131443   -1.031436   -0.626907
C     -2.526637    0.463636   -0.162173
C     -1.534750   -0.378608    0.585715
C      2.180233   -0.209721   -0.089924
C      0.803786   -0.663512   -0.004243
O      0.534491   -1.810012   -0.432625
O     -0.225699    0.093417    0.521242
H     -3.121838    0.812622   -2.169642
H     -1.652233    1.676887   -1.675141
H     -1.607539   -0.131548   -2.058929
H     -3.695726   -1.368697    0.065592
H     -4.522493    0.089912    0.666473
H     -4.406086   -0.163654   -1.093305
H     -1.807236    0.391918    2.614509
H     -1.654320   -1.444967    2.488215
H     -3.145733   -0.602952    2.004647
H      5.877545    0.966067   -0.338184
H      4.165874    2.424373    0.619523
H      5.195214   -1.256369   -1.136346
H      1.796724    1.722484    0.800287
H      2.879421   -2.041960   -1.001534
H     -2.691295    1.442934    0.325658
H     -1.566081   -1.413962    0.156287
