57

C      0.731290    1.968752    0.239465
C     -3.819966   -5.150474   -0.219530
C     -4.172296    1.854731    2.101092
C     -4.535517    2.322277   -0.180554
C     -5.552729    1.960441    2.322217
C     -5.885996    2.430168    0.012239
C     -3.432667   -2.353847    0.140646
C      5.430501   -0.219444   -1.237174
C     -3.235611   -1.004410    0.313321
C      6.523530    0.279444   -0.367991
C     -1.098994   -2.651346   -0.197832
C      1.638019   -0.985290   -0.312598
C     -0.141645    0.772840    0.175415
C     -3.660133    2.037143    0.839832
C     -6.401014    2.248408    1.271806
C     -2.369021   -3.169908   -0.113257
C      0.260137   -0.510457   -0.061213
C     -0.868754   -1.301529   -0.029236
C      4.091199    0.501615   -1.024362
C     -1.974268   -0.465873    0.233175
C      2.109845   -0.692587   -1.661931
C      6.267242    0.125602    1.063670
C     -2.241723    1.944313    0.599915
C      4.249927    1.979044   -1.319787
Cl    -8.118001    2.380226    1.547305
N      3.151971   -0.060908   -1.927819
N     -1.481966    0.782246    0.349714
O      1.365933   -1.137560   -2.795294
O      7.040171    0.671261    1.926784
O      5.212202   -0.595224    1.564036
O     -1.616005    3.082074    0.623883
O      3.698015    2.497881   -2.308257
O      5.013359    2.724483   -0.470578
O     -2.566273   -4.526710   -0.286852
H      0.644332    2.563240   -0.675370
H      0.580013    2.557637    1.169095
H      1.812255    1.647520    0.305284
H     -3.655978   -6.241191   -0.061707
H     -4.406066   -4.960156   -1.142352
H     -4.355203   -4.793914    0.690393
H     -3.580350    1.628119    2.971931
H     -4.132670    2.463096   -1.158975
H     -5.966415    1.819275    3.308029
H     -6.553861    2.652879   -0.794511
H     -4.458000   -2.756484    0.211365
H      5.306282   -1.290636   -1.066075
H      5.716677   -0.021072   -2.292648
H     -4.094710   -0.414406    0.500893
H      6.819500    1.345252   -0.555625
H      7.460220   -0.321514   -0.589613
H     -0.255169   -3.322805   -0.402901
H      1.703390   -2.107324   -0.195779
H      2.315104   -0.587878    0.452362
H      3.881389    0.423998    0.042243
H      1.931453   -1.385240   -3.595040
H      4.815623   -0.371478    2.467905
H      4.861418    3.735698   -0.399157
