54

C     -7.626825    0.375886    0.102826
C      7.938006    1.401056   -1.766522
C     -6.332170    1.007565   -0.339476
C     -5.365723    1.198955    0.806476
C     -5.010279   -0.099083    1.466546
C     -4.371068   -1.063908    0.509844
C     -3.096321   -0.452810   -0.044773
C     -2.413662   -1.394038   -1.005306
C     -1.173408   -0.748133   -1.542769
C     -0.191532   -0.413648   -0.461850
C      1.059070    0.227269   -1.074066
C      2.005678    0.570456    0.040092
C      2.396662   -0.651376    0.788826
C      3.373711   -0.324385    1.900780
C      4.601939    0.296431    1.344451
C      5.380241   -0.520038    0.373598
C      6.566374    0.324528   -0.030333
O      4.720573   -0.881608   -0.774656
O      7.333623    0.780358    0.857901
O      6.836646    0.612982   -1.342213
H     -8.414964    0.721068   -0.609825
H     -7.870649    0.611231    1.145488
H     -7.512425   -0.739006    0.003973
H      8.531271    0.877540   -2.515561
H      8.584271    1.547222   -0.852717
H      7.582772    2.396427   -2.064438
H     -6.515472    2.030535   -0.758153
H     -5.813241    0.436973   -1.134045
H     -5.854484    1.821487    1.612110
H     -4.485646    1.741556    0.414468
H     -5.912248   -0.605910    1.895122
H     -4.305804    0.038440    2.312264
H     -4.085929   -2.002334    1.045346
H     -5.065233   -1.256317   -0.316929
H     -2.377339   -0.257239    0.794004
H     -3.268932    0.493376   -0.565517
H     -2.082280   -2.297318   -0.437132
H     -3.123108   -1.665270   -1.818425
H     -0.657357   -1.433324   -2.254078
H     -1.443409    0.181586   -2.095736
H     -0.536442    0.266624    0.312204
H      0.063327   -1.391364    0.025560
H      1.525231   -0.494617   -1.793473
H      0.771276    1.109450   -1.679019
H      2.864201    1.110233   -0.415220
H      1.559511    1.290163    0.761884
H      1.470872   -0.997732    1.338053
H      2.720924   -1.503012    0.188048
H      2.892828    0.400171    2.575977
H      3.655770   -1.275057    2.393719
H      4.436823    1.302156    0.903815
H      5.292787    0.490251    2.217822
H      5.783177   -1.410685    0.890117
H      4.958384   -1.783765   -1.118758
