26

C      2.423609    0.387094   -0.051807
C     -1.810905   -1.296645    0.062655
C      1.878814   -0.816888   -0.760390
C     -0.329493   -1.672745    0.015129
C      1.249072    1.166133    0.475221
C     -1.847130   -0.025893    0.923385
C      0.364992   -0.647538   -0.810005
C      0.111336    0.759110   -0.442101
C     -1.233371    1.063287    0.103593
O     -1.244281    2.232003    0.862217
H      3.110211    0.083845    0.780135
H      3.048007    0.991848   -0.748087
H     -2.101322   -0.967133   -0.957574
H     -2.438423   -2.088725    0.460032
H      2.311763   -0.955588   -1.771636
H      2.126436   -1.754026   -0.200593
H      0.028431   -1.682288    1.068566
H     -0.252088   -2.656640   -0.460685
H      1.047861    0.990189    1.529376
H      1.472434    2.264041    0.332581
H     -1.330517   -0.204459    1.879153
H     -2.900021    0.229090    1.110717
H      0.035512   -0.805052   -1.878468
H      0.245446    1.386081   -1.373272
H     -1.923257    1.232275   -0.774765
H     -2.043117    2.788624    0.626624
