26

C      3.490255   -1.786022   -0.172889
C     -0.371638    3.012572    0.830191
C      2.280751   -1.013564   -0.707916
C     -3.100848   -1.173256    0.226093
C     -2.457057   -0.655285    1.326974
C     -2.557817   -1.016841   -1.027464
C     -1.253223    0.023379    1.130222
C     -1.351206   -0.334603   -1.209045
C     -0.709659    0.181387   -0.113345
O      0.913817    1.545612   -1.733365
O      0.882320    2.429066    0.689546
O      2.107701    0.073044    0.116249
P      0.818694    1.049540   -0.312547
H      3.178239   -2.148137    0.839508
H      3.804101   -2.583693   -0.847004
H      4.278648   -1.008199    0.003105
H     -0.515009    3.194872    1.922798
H     -1.187485    2.413928    0.429681
H     -0.296481    4.031443    0.376301
H      1.410681   -1.709468   -0.551970
H      2.384034   -0.781809   -1.771765
H     -4.042019   -1.709327    0.337302
H     -2.869233   -0.769622    2.312547
H     -3.074760   -1.430255   -1.892064
H     -0.772077    0.418642    2.016382
H     -0.990731   -0.253403   -2.217523
