31

C     -2.579587   -0.540591   -0.819338
C     -1.303811    3.242350   -0.209138
C      4.112953   -1.874828    0.105593
C     -1.011088   -0.811947    1.158702
C      1.369937   -0.672986    0.455511
C      1.073347    1.896516   -0.408102
C     -1.906374   -1.444194    0.149140
C      0.118905   -0.062755    0.592163
C      2.269001    1.254366   -0.517569
C     -0.017382    1.228065    0.155643
C      2.453895   -0.053518   -0.087453
Br     3.725350    2.238878   -1.304377
N     -2.967468   -2.126487    0.914789
O     -1.210050    1.921476    0.250899
O      3.700708   -0.591850   -0.249485
H     -3.268724   -1.112129   -1.507180
H     -3.200520    0.196862   -0.265486
H     -1.898819    0.008795   -1.497455
H     -0.654563    3.886986    0.398599
H     -2.351757    3.607715   -0.114997
H     -0.999987    3.254577   -1.276715
H      4.353320   -1.866553    1.195417
H      5.059091   -2.084483   -0.464130
H      3.422519   -2.680871   -0.140037
H     -1.630815   -0.067330    1.748562
H     -0.613290   -1.566320    1.889903
H      1.492182   -1.696887    0.798557
H      0.946925    2.932980   -0.754880
H     -1.386329   -2.286234   -0.394063
H     -3.636175   -1.369759    1.216805
H     -3.461394   -2.759845    0.246597
