23

C      1.406188    1.165575   -0.579376
C     -1.331846    1.399833    0.227594
C     -0.969847   -0.493683   -1.319153
C     -1.353403   -0.883552    1.067422
C      0.764230    0.174987    0.357076
C      1.518943   -1.090890    0.319895
C     -0.685943    0.024458    0.054037
O      0.992916   -2.177685   -0.028220
O      2.858864   -1.121846    0.674896
H      0.892555    1.195193   -1.549775
H      1.451474    2.182851   -0.103264
H      2.474918    0.864141   -0.707946
H     -0.578115    2.205379    0.187710
H     -2.073274    1.558182   -0.571851
H     -1.861437    1.485573    1.186970
H     -1.772225   -1.283546   -1.315541
H     -0.094674   -0.918671   -1.833469
H     -1.373331    0.301489   -2.008886
H     -2.423213   -0.641113    1.090996
H     -0.924627   -0.661150    2.064697
H     -1.209054   -1.938650    0.776941
H      0.839778    0.585717    1.402689
H      3.451123   -1.932595    0.606559
