32

C      3.707805    1.460665    0.761546
C     -0.530769    1.491860   -0.655443
C     -2.325573    1.293672    1.061337
C      0.028342   -1.220589   -1.393821
C     -1.414093   -1.040753   -1.779657
C     -1.860900   -1.390519    0.650783
C      1.700664   -1.675784    0.279902
C      2.860523    0.426299    0.079548
C      0.387073   -1.137109   -0.113047
C     -2.129656   -0.515873   -0.584203
C     -0.583988   -0.533280    0.804589
C     -1.354922    0.557006    0.145777
O      2.537105    0.600819   -1.109106
O      2.490588   -0.666026    0.826461
H      4.490807    1.813095    0.040376
H      4.222303    1.041545    1.646341
H      3.096181    2.315044    1.104108
H      0.350387    1.859654   -0.051702
H     -1.143451    2.438461   -0.782247
H     -0.217287    1.179491   -1.645633
H     -2.493709    0.767940    1.997525
H     -3.288055    1.361807    0.516787
H     -1.993429    2.345684    1.229773
H      0.738870   -1.415163   -2.183120
H     -1.503396   -0.335477   -2.604680
H     -1.833795   -2.027068   -2.056453
H     -2.522199   -1.200877    1.492802
H     -1.631638   -2.432316    0.415151
H      2.192049   -2.210211   -0.558541
H      1.515482   -2.442854    1.066151
H     -3.210047   -0.319424   -0.692367
H     -0.281272   -0.389719    1.849914
