27

C      2.922852   -0.606405    0.347190
C      3.076283    1.093013   -1.371255
C     -3.160708    0.111434    0.711318
C      0.111043    1.283565   -0.415729
C      0.293039   -1.024889    0.253519
C     -1.197568    1.206548   -0.206229
C     -1.190913   -1.266101    0.052746
C      2.278470    0.129202   -0.534660
C      0.832661    0.005765   -0.691042
C     -1.972128   -0.035807   -0.226927
O     -2.530077   -0.153672   -1.521457
H      2.402788   -1.301816    0.961818
H      4.014548   -0.529309    0.479607
H      4.131448    0.769203   -1.392880
H      3.029775    2.104641   -0.931741
H      2.671260    1.052842   -2.412701
H     -3.796829    0.910596    0.273430
H     -2.756146    0.441568    1.691809
H     -3.685195   -0.862323    0.794140
H      0.605905    2.244039   -0.382240
H      0.495099   -0.735286    1.283231
H      0.764226   -2.037524    0.080458
H     -1.756228    2.139574   -0.000990
H     -1.558011   -1.696729    1.024836
H     -1.374150   -2.060456   -0.711289
H      0.561812   -0.293517   -1.750977
H     -3.213257   -0.888158   -1.501188
