34

C      3.660044   -0.524143    1.584753
C     -4.501728   -0.097161   -0.049166
C     -2.743581    0.331983    1.581040
C     -0.055456   -0.958191   -1.095382
C     -0.020241    1.069096    0.113185
C      1.302924   -1.137741   -0.872270
C      1.331805    0.890555    0.335360
C     -2.199204    0.323403   -0.856590
C      3.468438   -0.398349    0.090556
C     -0.745490    0.138346   -0.613627
C      2.003832   -0.209960   -0.153115
C      4.240886    0.744745   -0.460241
C     -3.031136   -0.309525    0.238671
O      4.973773    1.487266    0.264991
O      4.144670    0.993663   -1.819183
O     -2.789639   -1.665152    0.247060
H      3.646307    0.475849    2.077404
H      2.808709   -1.111155    1.991194
H      4.583155   -1.089988    1.830850
H     -4.856335   -0.792169   -0.815145
H     -5.044395   -0.301751    0.919352
H     -4.721818    0.959087   -0.315871
H     -2.842737    1.433935    1.421483
H     -1.755492    0.073876    1.980873
H     -3.504584    0.012419    2.300925
H     -0.599602   -1.683681   -1.656779
H     -0.484132    1.958897    0.527394
H      1.845460   -1.993456   -1.247243
H      1.886057    1.623975    0.903896
H     -2.460704   -0.229300   -1.800056
H     -2.464662    1.396290   -1.000277
H      3.797982   -1.325446   -0.378204
H      4.248186    1.947847   -2.178289
H     -3.121292   -2.034063   -0.608569
