52

C      1.968632   -1.117780   -1.119432
C      0.914187    0.884199   -1.994957
C     -7.531284   -1.148938   -0.182702
C      6.208637   -0.561879    0.250118
C      7.097502    0.390514   -0.148428
C     -6.492294   -1.622941   -0.883643
C     -7.400969   -0.336239    0.908006
C      4.858687   -0.294656    0.345558
C      6.593889    1.666973   -0.462784
C     -5.160776   -1.291739   -0.509724
C      1.788727    0.854750    0.349729
C     -5.883805    0.817993    2.390127
C      3.245075    2.780246   -0.365915
C     -0.260448   -1.079848    0.934713
C     -2.486725   -0.089819    0.972529
C     -6.068841   -0.002245    1.285169
C      3.068731    1.480402    0.041383
C     -1.751039   -1.423632    1.136330
C      4.325581    0.938901    0.044589
C      5.250408    1.883115   -0.355033
C     -4.976271   -0.475355    0.586092
C      1.135947    0.046664   -0.718273
N     -5.739869    1.549659    3.363418
N      4.522720    3.016012   -0.598456
N     -0.188821   -0.323270   -0.280081
O     -2.111185   -2.212542    0.075757
O     -3.771119   -0.139661    0.974569
H      1.417424   -1.698316   -1.926747
H      2.893824   -0.762523   -1.599818
H      2.234309   -1.783663   -0.287815
H      0.418174    1.827218   -1.734378
H      0.228986    0.334976   -2.685206
H      1.856449    1.012984   -2.567195
H     -8.548370   -1.423350   -0.498079
H      6.546692   -1.574613    0.505158
H      8.141531    0.234668   -0.241615
H     -6.649387   -2.267214   -1.740190
H     -8.214783    0.046550    1.470409
H      4.201077   -1.070507    0.679762
H      7.276739    2.455849   -0.784032
H     -4.372106   -1.681045   -1.103923
H      1.937171    0.225139    1.284082
H      1.083680    1.663604    0.736091
H      2.460602    3.549596   -0.497977
H      0.045608   -0.464819    1.784602
H      0.283486   -2.026684    0.909164
H     -1.974370    0.365941    0.057214
H     -2.013232    0.559521    1.796704
H     -1.952259   -1.870906    2.105594
H      4.979447    3.909799   -0.921750
H     -0.736655   -0.775680   -1.062622
H     -2.699314   -2.975407    0.283909
