38

C      4.752290    0.853093   -0.422570
C     -2.756993    2.700660    0.766712
C     -4.486868   -2.452874    0.127074
C      2.790430   -0.383567    1.326448
C      3.564334    0.098951   -0.947309
C     -1.555621    2.786888   -0.110983
C     -3.224813   -2.380007   -0.736322
C      1.258291   -0.600451   -0.620067
C      2.366071    0.201970    0.004092
C      0.024636   -0.661549    0.245197
C     -0.549078    0.653180    0.527555
C     -1.011974   -1.430847   -0.530768
O     -0.645631    1.047751    1.709437
O     -0.782471   -1.890456   -1.677688
O     -1.010903    1.528077   -0.446573
O     -2.271093   -1.658761    0.005764
H      5.203473    1.397731   -1.293667
H      4.484624    1.639403    0.310619
H      5.539701    0.169722   -0.054858
H     -3.222155    3.712284    0.804079
H     -3.538984    2.031255    0.341618
H     -2.524137    2.443921    1.825250
H     -4.880120   -1.408024    0.158321
H     -5.209823   -3.170313   -0.272752
H     -4.142176   -2.689020    1.154779
H      3.792282    0.003133    1.608130
H      2.110151   -0.119560    2.154870
H      2.825802   -1.490419    1.270743
H      3.236680    0.447996   -1.945732
H      3.870523   -0.960936   -1.064866
H     -0.784642    3.386219    0.429316
H     -1.806858    3.372974   -1.017436
H     -3.454794   -1.937880   -1.715483
H     -2.925861   -3.434083   -0.910952
H      1.626492   -1.641135   -0.743260
H      1.000609   -0.228046   -1.611639
H      2.119700    1.254028    0.166102
H      0.218905   -1.191308    1.186819
