23

C     -2.690624   -0.319613    1.035029
C     -1.310499    0.804584   -1.466382
C     -1.224565   -0.064147    0.896093
C      0.790598    0.122021   -0.510982
C      1.599300   -0.734106    0.396255
C     -0.695600   -0.153258   -0.495675
C      3.035710   -0.375768    0.289752
O      3.944396   -0.939956    0.945306
O      3.411491    0.635945   -0.577220
H     -2.898360   -0.507941    2.112685
H     -3.243423    0.636473    0.801174
H     -3.070604   -1.174536    0.480001
H     -1.237487    0.350400   -2.477796
H     -2.372698    1.018661   -1.288777
H     -0.737505    1.761926   -1.529238
H     -1.013892    0.934777    1.326587
H     -0.694168   -0.800697    1.532495
H      0.929923    1.183691   -0.193217
H      1.220424    0.056393   -1.526086
H      1.319999   -0.662708    1.470878
H      1.523155   -1.805048    0.069620
H     -0.829050   -1.189679   -0.877610
H      4.243478    1.222586   -0.412892
