40

C      2.488310    0.790717    2.698057
C      4.490737   -0.716689   -2.801018
C      3.166614   -0.999862   -3.005412
C      4.903560   -0.190291   -1.596963
C      2.264983   -0.753628   -2.001546
C     -2.047726    1.440252    0.461515
C     -3.337924    1.866649    0.478319
C      4.123744    0.614242    0.798639
C     -2.841727   -0.787101    0.307795
C      2.903450    0.035764    1.477085
C      3.998068    0.062068   -0.575790
C     -1.756071    0.094339    0.375381
C     -4.388987    0.994201    0.411628
C      2.657202   -0.221089   -0.772828
C     -4.144173   -0.352918    0.325003
C     -0.387103   -0.390658    0.355380
Cl    -6.046875    1.613942    0.437950
N     -6.463247   -1.093473   -1.155643
N      0.573754    0.430924    0.417891
N      1.920268    0.115757    0.408879
O     -0.118829   -1.741755    0.268717
O     -6.329072   -1.350646    1.469957
O     -4.944213   -2.854974    0.157516
S     -5.505172   -1.447866    0.240924
H      3.378174    1.247342    3.174047
H      2.067940    0.066525    3.420921
H      1.759559    1.566947    2.390441
H      5.236537   -0.904800   -3.590662
H      2.851051   -1.409578   -3.945107
H      5.932268    0.043900   -1.401283
H      1.218028   -0.965315   -2.134194
H     -1.210906    2.156311    0.516032
H     -3.513953    2.938014    0.547376
H      5.071097    0.321481    1.291693
H      3.990695    1.724108    0.760080
H     -2.658602   -1.862284    0.238552
H      3.103796   -1.048965    1.686326
H     -7.269361   -0.493822   -0.912991
H     -5.871213   -0.608488   -1.893340
H      0.735316   -2.150727    0.670675
