30

C     -4.549341    0.519101   -0.225848
C     -2.219997   -1.302981    0.220830
C      5.450441   -0.256677    0.121777
C     -3.348347    0.898588    0.574104
C      0.654150   -0.569490   -0.557821
C      1.557871    0.834822    1.092975
C      1.949122   -0.952251   -0.903152
C      2.846543    0.464058    0.760792
C     -2.092625    0.184949    0.114411
C      0.444311    0.340226    0.457602
C      3.044205   -0.442065   -0.251378
C     -0.908992    0.734124    0.812126
O     -1.063050    1.564686    1.738688
O      4.345119   -0.802079   -0.570569
H     -4.977624   -0.420199    0.189895
H     -4.341997    0.451650   -1.307682
H     -5.312362    1.319401   -0.103111
H     -1.410374   -1.789615    0.787238
H     -2.402797   -1.789166   -0.759250
H     -3.156784   -1.501189    0.816939
H      6.382201   -0.685161   -0.243953
H      5.461432    0.839233   -0.013792
H      5.324476   -0.458901    1.216393
H     -3.193331    1.988981    0.470076
H     -3.541235    0.644712    1.647960
H     -0.163063   -1.002899   -1.104358
H      1.397758    1.561270    1.904301
H      2.119617   -1.667647   -1.701287
H      3.703062    0.875034    1.284076
H     -1.998390    0.419483   -0.986477
