40

C     -2.640881    2.323246    0.332447
C     -4.438147   -2.345100   -0.477533
C     -3.351671   -2.412992   -1.337613
C     -4.466016   -1.465663    0.576883
C     -2.298998   -1.563566   -1.094456
C      2.598098    1.115302   -2.180902
C      3.969670    1.020621   -2.236215
C     -3.176964    0.421577    1.871009
C      2.694274    0.131681   -0.022095
C     -2.066608    1.271527    1.252716
C     -3.413643   -0.618127    0.818031
C      1.950555    0.658796   -1.045301
C      4.727444    0.495075   -1.219207
C     -2.320329   -0.674637   -0.033570
C      4.061893    0.045446   -0.095347
C      0.508102    0.723080   -0.908970
Cl     6.465837    0.353272   -1.241058
N      3.803584   -1.086207    2.459921
N     -0.039599    0.293547    0.147522
N     -1.394884    0.284300    0.429769
O     -0.240448    1.249143   -1.928749
O      5.960772    0.296360    1.794362
O      5.572241   -1.921028    0.746741
S      4.925722   -0.643276    1.262460
H     -3.083053    1.797287   -0.536040
H     -3.422579    2.949631    0.846782
H     -1.833102    3.008533    0.046898
H     -5.261219   -3.022759   -0.683528
H     -3.356624   -3.114661   -2.159375
H     -5.355761   -1.462822    1.219184
H     -1.436153   -1.605223   -1.763075
H      1.990017    1.519174   -2.957497
H      4.492204    1.372446   -3.115950
H     -4.080882    1.012150    2.079515
H     -2.757745   -0.039713    2.803435
H      2.160467   -0.225576    0.871829
H     -1.400459    1.701971    2.022187
H      3.021206   -1.628177    2.083941
H      4.197204   -1.393271    3.352893
H     -1.263524    1.178632   -1.982041
