50

C      4.523868    0.963930   -1.878297
C      1.022490   -1.764345   -0.838250
C      5.025850    1.179649   -0.466856
C      5.071869   -0.108178    0.287955
C      3.677739   -0.729202    0.349285
C     -4.455200   -1.781458   -2.673802
C     -3.524966    2.073904    3.207376
C      2.706627    0.152574    1.029245
C     -3.884934   -0.554565   -2.988297
C     -4.112178   -2.390449   -1.497031
C     -3.391969    0.703426    3.260927
C     -3.059944    2.790318    2.110132
C      1.317797   -0.336171    1.224860
C     -2.994047    0.079677   -2.178934
C     -3.208587   -1.752467   -0.670919
C     -2.783325    0.086814    2.187244
C     -2.452967    2.178618    1.038468
C      0.522892   -0.674664    0.024195
C     -2.639534   -0.533896   -0.978593
C     -2.320184    0.790727    1.096324
C     -1.664104    0.130368   -0.074754
O     -0.811543   -0.835533    0.406277
H      3.446856    1.247122   -1.874391
H      5.110900    1.593496   -2.567838
H      4.652328   -0.099808   -2.174306
H      1.417672   -1.354720   -1.785159
H      1.777075   -2.431301   -0.401605
H      0.123700   -2.368821   -1.179437
H      4.448336    1.950092    0.067552
H      6.069713    1.618595   -0.526719
H      5.399051    0.070958    1.326099
H      5.708989   -0.836446   -0.233255
H      3.389178   -0.810801   -0.730539
H      3.709165   -1.730084    0.805570
H     -5.162978   -2.272114   -3.330093
H     -4.003489    2.596298    4.042745
H      3.151967    0.392747    2.046202
H      2.671099    1.180880    0.536315
H     -4.175065   -0.094370   -3.928106
H     -4.528251   -3.354302   -1.197908
H     -3.756204    0.157054    4.116924
H     -3.160890    3.877702    2.058637
H      1.284959   -1.153921    2.004120
H      0.751722    0.501639    1.761174
H     -2.541951    1.047112   -2.422966
H     -2.957002   -2.277914    0.263567
H     -2.675184   -0.989423    2.230074
H     -2.085593    2.710164    0.179657
H      0.501235    0.270705   -0.612789
H     -1.132988    0.890382   -0.699089
