28

C     -2.847055    0.787976   -1.238389
C      1.884183    2.605302   -0.102760
C      1.827601   -2.548079    0.394541
C      2.935953   -1.740976    0.547056
C      0.590623   -2.022241    0.085546
C      2.756920   -0.385773    0.377727
C     -0.235772    1.435647   -0.434442
C     -2.075634   -0.371186   -0.622151
C      0.402047   -0.655426   -0.087065
C     -0.697283    0.116867   -0.397538
C      1.507327    0.153751    0.064810
C     -2.658865   -0.647697    0.739737
N      1.076467    1.409166   -0.153692
O     -3.729554   -0.075021    1.093331
O     -2.049373   -1.511613    1.610379
H     -3.223922    1.461001   -0.446276
H     -2.172329    1.331008   -1.932729
H     -3.684424    0.367367   -1.820510
H      1.793960    3.108593    0.903560
H      1.508116    3.358245   -0.835424
H      2.973720    2.379600   -0.258602
H      1.930348   -3.614617    0.521214
H      3.927959   -2.154833    0.794189
H     -0.252660   -2.688751   -0.035161
H      3.582659    0.291100    0.484847
H     -0.893309    2.274037   -0.660871
H     -2.087153   -1.279888   -1.206565
H     -2.090552   -1.383562    2.615238
