38

C      5.531729   -0.351673    0.709167
C     -1.041566    0.917754    1.667611
C     -5.315200   -0.844778    0.067262
C     -4.550857   -0.869992   -1.074610
C     -4.733735   -0.909597    1.309347
C     -3.183805   -0.962211   -0.937351
C     -3.363621   -1.001150    1.406500
C      3.547559   -0.674619   -0.811541
C      3.672948    1.274098    0.474361
C      2.356633   -0.257067   -1.347058
C      2.484313    1.721681   -0.041104
C     -1.092343   -1.126713    0.355026
C      4.239679    0.078617    0.114172
C     -0.488562    0.271085    0.403090
C     -2.559402   -1.029856    0.305745
C      1.807072    0.954831   -0.965302
O      0.147034    1.027646   -3.074673
O      0.310051    3.010805   -1.669980
O     -0.952522    0.950472   -0.697015
S      0.301464    1.496189   -1.635128
H      5.746069   -1.396367    0.384841
H      5.428237   -0.316099    1.812712
H      6.337206    0.331365    0.360338
H     -2.117252    1.124806    1.517308
H     -0.490500    1.869272    1.893366
H     -0.920233    0.268131    2.551968
H     -6.380319   -0.773182   -0.027676
H     -4.990124   -0.820233   -2.049896
H     -5.339391   -0.889420    2.204854
H     -2.591395   -0.981349   -1.840733
H     -2.925520   -1.050959    2.387289
H      3.971934   -1.623197   -1.114200
H      4.184967    1.890630    1.195774
H      1.813988   -0.866252   -2.084330
H      2.046670    2.685833    0.262323
H     -0.804250   -1.631117    1.297376
H     -0.685153   -1.715415   -0.491026
H      0.598196    0.218032    0.453966
