49

C     -5.464553    0.129887   -2.004415
C     -2.394591    1.259706   -0.848941
C      6.553812    1.585619   -0.709734
C     -4.662869   -0.281216   -1.238243
C      1.689266   -1.060194    1.989819
C      3.901800    0.824165   -1.061848
C      0.380601   -0.340854    2.128930
C      2.576954    0.455459   -1.269998
C     -0.157064   -0.316665   -1.651939
C     -2.617686    0.111423    1.731152
C     -1.558575   -0.889007   -1.646272
C     -3.962532   -0.228557    1.116746
C      3.834363   -0.037131    1.185223
C      2.535832   -0.388497    0.954665
C      4.524441    0.583174    0.145887
C      1.896081   -0.150680   -0.260350
C      0.487035   -0.597483   -0.331720
C     -0.262922    0.029860    0.834736
C     -1.648324   -0.493377    0.784040
C     -2.319355   -0.203030   -0.553622
C     -3.672780   -0.765977   -0.280920
O     -3.582165   -2.149579   -0.251460
O      5.838241    0.950709    0.346638
H     -6.183648    0.517698   -2.694917
H     -3.124980    1.792637   -0.183481
H     -2.810262    1.366149   -1.874177
H     -1.435223    1.781201   -0.796001
H      5.965738    2.416480   -1.112701
H      7.496116    2.031389   -0.307963
H      6.792841    0.840444   -1.508361
H      2.177585   -1.117570    2.968438
H      1.486870   -2.121978    1.662032
H      4.435976    1.312609   -1.888417
H     -0.296843   -0.970198    2.770831
H      0.575332    0.573498    2.763032
H      2.071398    0.634786   -2.206958
H      0.409072   -0.893274   -2.417033
H     -0.120138    0.730640   -1.946380
H     -2.595602   -0.321000    2.751634
H     -2.514862    1.227104    1.815245
H     -2.023919   -0.580969   -2.615117
H     -1.504033   -1.980576   -1.526708
H     -4.511766   -0.974466    1.695407
H     -4.590942    0.694663    1.005147
H      4.293651   -0.240874    2.145833
H      0.474054   -1.693576   -0.161460
H     -0.269628    1.144887    0.749736
H     -1.661209   -1.592459    0.925527
H     -4.450591   -2.605001   -0.363525
