38

C      6.467238    0.864363    0.549298
C     -1.117124    0.200424    1.467477
C     -5.942135    0.621101   -0.000262
C     -5.243799    0.373860   -1.169424
C     -5.427940    0.168169    1.193684
C     -4.052362   -0.308277   -1.189438
C     -4.225357   -0.522200    1.187491
C      4.058720    1.311400   -0.003126
C      4.868944   -0.886813   -0.264683
C      2.808226    0.903560   -0.429751
C      3.621148   -1.308192   -0.693538
C     -2.249345   -1.505828    0.031124
C      5.115436    0.425267    0.088500
C     -1.058091   -0.575546    0.193281
C     -3.531984   -0.766848    0.020360
C      2.579016   -0.409543   -0.778494
O      1.100274   -1.942939   -2.328928
O      0.363203    0.330983   -1.994841
O      0.093988   -1.315270    0.029825
S      0.983146   -0.853315   -1.306192
H      6.465887    1.972486    0.524104
H      6.618148    0.441885    1.550322
H      7.217983    0.459820   -0.182583
H     -1.505012   -0.464447    2.273060
H     -1.824069    1.039226    1.371371
H     -0.115601    0.530451    1.813772
H     -6.876355    1.157648    0.002720
H     -5.703618    0.758702   -2.083959
H     -5.960485    0.351322    2.126151
H     -3.537701   -0.482132   -2.114465
H     -3.868601   -0.854660    2.152390
H      4.211747    2.339916    0.262876
H      5.672853   -1.612859   -0.206321
H      2.023882    1.664209   -0.475275
H      3.432178   -2.343381   -0.970703
H     -2.231080   -2.191156    0.903049
H     -2.149051   -2.104859   -0.895590
H     -1.082307    0.165635   -0.653285
