29

C      3.689536    0.519238    0.353435
C     -2.188565   -1.371151    0.477813
C      1.360301    1.152666    0.769543
C      1.718945   -1.143919    0.128860
C     -0.073937    0.743899    0.816282
C      0.572522   -1.013664   -0.822929
C     -2.752448    0.822978   -0.462387
C      2.236827    0.217709    0.430287
C     -1.825802   -0.377128   -0.592758
C     -0.387531    0.077722   -0.496978
O     -2.490022    1.788064   -1.408079
H      3.864034    0.958748   -0.670046
H      3.965460    1.242886    1.130101
H      4.264792   -0.426518    0.395310
H     -1.919861   -0.987926    1.472277
H     -3.316037   -1.439173    0.476091
H     -1.806763   -2.389548    0.269349
H      1.657058    2.174216    1.005617
H      1.423393   -1.667957    1.055670
H      2.520671   -1.729512   -0.379674
H     -0.140526   -0.007042    1.654225
H     -0.733150    1.602960    0.990498
H      0.011664   -1.977082   -0.803627
H      0.989613   -0.942156   -1.858559
H     -2.717105    1.248860    0.559404
H     -3.798543    0.439311   -0.587172
H     -1.970710   -0.855379   -1.566130
H     -0.265867    0.872252   -1.285815
H     -1.887948    2.466648   -0.999699
