43

C      3.826055   -1.310815    1.138222
C     -1.612586   -3.255925   -0.316696
C     -1.423534   -1.835607    1.511824
C      3.759344   -0.774994   -0.272695
C     -0.479479    3.485173    1.980501
C     -1.524427    2.596745    1.842837
C      0.669575    3.231239    1.290306
C     -2.323291    0.671969   -1.889916
C     -1.121522    1.459670   -2.239720
C     -1.369966    1.492576    1.018130
C      0.804279    2.125444    0.473355
C     -2.325656   -0.460355   -1.194499
C      0.163880    0.715758   -1.980140
C     -0.231902    1.209339    0.312848
C     -1.010489   -0.968299   -0.736766
C      1.319644   -0.597662   -0.353555
C      0.011132    0.100901   -0.566693
N     -1.013498   -2.033056    0.182597
O      1.339828   -1.833335   -0.008605
O      2.554799   -0.032229   -0.495173
H      4.888816   -1.398877    1.433653
H      3.326938   -0.603665    1.831814
H      3.381374   -2.328706    1.213186
H     -2.727320   -3.123694   -0.347774
H     -1.329006   -3.441928   -1.387466
H     -1.398375   -4.119733    0.322777
H     -2.434283   -1.424228    1.668212
H     -0.715783   -1.134141    2.040387
H     -1.354892   -2.775172    2.119855
H      3.879211   -1.590595   -1.001467
H      4.629838   -0.092120   -0.392343
H     -0.578549    4.370114    2.630205
H     -2.453616    2.760191    2.372654
H      1.481376    3.951354    1.417903
H     -3.277011    1.088687   -2.252875
H     -1.138882    2.370786   -1.585228
H     -1.179979    1.759997   -3.304467
H     -2.201484    0.847163    0.950009
H      1.763761    2.050780   -0.016356
H     -3.231127   -0.964045   -0.985243
H      1.008435    1.407340   -2.011164
H      0.302333   -0.107409   -2.704379
H     -0.653961   -1.488640   -1.708057
