22

C     -1.486152   -0.769859   -1.497447
C     -1.197757   -0.869210    1.023572
C      1.807180   -0.354999    0.532045
C      0.751597    0.003717   -0.462314
C      2.832617   -1.112228    0.199322
C     -0.205135    1.093072   -0.250665
C     -0.353977    1.824640    1.025110
C     -0.657224   -0.356020   -0.277215
Br     2.974475   -1.762369   -1.579509
Br     4.156177   -1.550860    1.481338
O     -0.091326    1.283717    2.121263
O     -0.788654    3.136445    1.070403
H     -0.803705   -1.133340   -2.307909
H     -2.144085   -1.620243   -1.252565
H     -2.116505    0.075723   -1.838240
H     -1.830443   -1.784298    0.872569
H     -1.885012   -0.134794    1.523799
H     -0.380002   -1.172725    1.724152
H      1.755388    0.000413    1.556134
H      1.120017   -0.111862   -1.526621
H     -0.494128    1.725394   -1.144659
H     -0.963347    3.589688    1.937031
