27

C      2.803183    1.122157    0.507055
C      2.294136   -1.631058   -0.310963
C      1.468758    0.449324    0.748404
C     -3.422815    1.305285   -0.233548
C     -2.808985    1.029381    0.967567
C     -2.981932    0.753710   -1.422149
C     -1.721403    0.184712    1.030401
C     -1.883780   -0.093041   -1.323179
C     -0.109738   -1.284327   -0.137997
C      1.204185   -0.580033   -0.325308
C     -1.268648   -0.371644   -0.131779
H      3.623720    0.644688    1.118557
H      3.073747    0.940005   -0.551430
H      2.777190    2.204178    0.755034
H      3.245664   -1.204096   -0.674594
H      2.369412   -2.070307    0.704027
H      1.928769   -2.472817   -0.966616
H      1.570245   -0.119114    1.709015
H      0.704267    1.226877    0.793329
H     -4.282713    1.972919   -0.284416
H     -3.231164    1.514297    1.854633
H     -3.469609    0.975349   -2.362169
H     -1.276115    0.001959    2.002797
H     -1.544530   -0.523914   -2.275241
H     -0.143362   -1.884141    0.790480
H     -0.191507   -2.025853   -0.974540
H      1.273023   -0.064497   -1.303257
