30

C      2.569288    0.925321    0.955283
C     -2.538621   -0.622808   -0.918161
C     -4.241412    0.721298    0.402133
C      0.347993   -0.287310    0.513685
C     -0.441347    0.957336    0.715663
C      2.226207   -0.324316   -1.097175
C      3.623103    0.094724   -1.461329
C      1.741080    0.086239    0.067944
C     -1.842019    0.805707    1.162404
C     -2.864499    0.072963    0.357508
O      4.459886   -0.977495   -1.653435
O     -2.337001   -0.451051    1.511779
H      2.048986    1.095900    1.932454
H      3.539900    0.437985    1.237255
H      2.840876    1.911287    0.499206
H     -3.467996   -0.684370   -1.567986
H     -2.242509   -1.682372   -0.773593
H     -1.845293   -0.013561   -1.500996
H     -4.090285    1.792054    0.143411
H     -4.672093    0.623221    1.431270
H     -4.886275    0.247393   -0.351309
H     -0.053261   -0.946849   -0.270526
H      0.429256   -0.891648    1.453438
H      0.099323    1.658316    1.416602
H     -0.473954    1.530652   -0.259477
H      1.633845   -0.943979   -1.768556
H      4.034091    0.784104   -0.709303
H      3.548613    0.645132   -2.440439
H     -2.206175    1.588726    1.873103
H      5.060292   -1.146114   -0.900852
