26

C      4.257163   -0.555512   -0.580141
C      2.924734   -1.116873   -0.179361
C     -3.893003    0.304623   -1.141107
C     -3.528381    1.534941   -0.630400
C     -3.034008   -0.761770   -1.069347
C     -2.284184    1.656098   -0.051111
C     -1.785631   -0.604943   -0.478069
C     -1.401672    0.599355    0.033715
C     -0.100244    0.840962    0.671053
C      0.868002   -0.254986    0.551344
N      1.966807   -0.059717   -0.052112
O      0.460809    2.032823    0.201138
O      0.595968   -1.486418    1.085162
H      4.236482   -0.310550   -1.646564
H      5.016046   -1.354848   -0.430324
H      4.532328    0.354007   -0.014146
H      2.636953   -1.886142   -0.922865
H      3.023931   -1.625387    0.800110
H     -4.850898    0.174005   -1.597730
H     -4.223953    2.365136   -0.698034
H     -3.341966   -1.701258   -1.472255
H     -2.015075    2.624176    0.342945
H     -1.152096   -1.466285   -0.447357
H     -0.335136    1.058881    1.758524
H      0.424052    1.985967   -0.789949
H      1.002974   -2.346285    0.716074
