30

C      2.205739    0.726823   -1.112276
C     -3.139874    1.551470    0.092163
C     -4.379825   -0.665416   -0.290223
C      0.566002   -0.978050   -0.177888
C     -0.528002    0.086636   -0.011137
C      2.816358   -0.611990    0.796830
C      4.144777    0.043199    0.870129
C      1.899931   -0.321219   -0.103131
C     -1.846054   -0.613009   -0.092059
C     -3.092843    0.062083    0.022879
O      5.153689   -0.905716    0.720536
O     -2.502061   -0.578327    1.235834
H      3.147778    0.452436   -1.636214
H      1.422520    0.810186   -1.883863
H      2.280692    1.736273   -0.637025
H     -4.022050    1.921932   -0.466158
H     -2.236652    1.942207   -0.445571
H     -3.125952    1.889549    1.138987
H     -4.956536   -0.781209    0.673611
H     -5.014209   -0.139110   -1.000842
H     -4.194662   -1.701459   -0.639096
H      0.436794   -1.788920    0.553480
H      0.462384   -1.421180   -1.203260
H     -0.405434    0.866057   -0.799971
H     -0.335846    0.541121    0.979544
H      2.582207   -1.374059    1.523314
H      4.264830    0.562136    1.847789
H      4.212432    0.798460    0.076462
H     -1.832496   -1.624437   -0.545787
H      6.016364   -0.486471    0.512944
