36

C      5.545527    0.225967   -0.247748
C     -5.000842   -0.013678    1.145988
C      4.446753    1.023411    0.419334
C      3.084849    0.695533   -0.147200
C      2.741964   -0.755676    0.030741
C      1.387114   -1.051051   -0.541057
C      0.281840   -0.242596    0.120693
C     -1.008060   -0.647567   -0.554993
C     -2.205006    0.083360    0.006363
C     -3.413307   -0.414444   -0.753823
C     -4.687506    0.224909   -0.305355
O     -4.649045    1.583837   -0.603389
H      5.426058   -0.852650   -0.166455
H      6.489352    0.490604    0.298819
H      5.703727    0.535716   -1.294341
H     -5.267234   -1.075209    1.304198
H     -5.909498    0.591181    1.388823
H     -4.154243    0.281905    1.777209
H      4.438093    0.855073    1.494674
H      4.647872    2.096589    0.196201
H      2.946233    1.030960   -1.177300
H      2.353869    1.283939    0.479519
H      3.480233   -1.346287   -0.526867
H      2.821338   -1.038366    1.087902
H      1.381311   -0.852379   -1.627705
H      1.140226   -2.132763   -0.428104
H      0.462857    0.842513   -0.135208
H      0.269026   -0.378585    1.210706
H     -0.884699   -0.432974   -1.636376
H     -1.137464   -1.724915   -0.426464
H     -2.307616   -0.235239    1.082274
H     -2.094499    1.164993    0.009175
H     -3.446570   -1.515718   -0.641280
H     -3.258650   -0.166818   -1.815088
H     -5.510967   -0.210386   -0.905597
H     -4.113033    2.076812    0.059685
