22

C      2.678674   -0.596302    0.703041
C      2.801672    0.447351   -0.201579
C      1.423177   -1.104715    0.962836
C      1.676436    0.949043   -0.815360
C     -1.504228   -0.666308   -1.066690
C     -1.973661    0.170525    1.034776
C     -1.172955   -0.944457    0.415653
C      0.286895   -0.612194    0.355221
C      0.451963    0.428549   -0.539930
C     -0.907325    0.754807   -1.020312
C     -1.631705    1.304370    0.149830
O     -1.878184    2.461362    0.316450
H      3.578714   -0.989096    1.186696
H      3.768892    0.873524   -0.432476
H      1.330534   -1.921334    1.671233
H      1.757016    1.762040   -1.522343
H     -0.935509   -1.324790   -1.719904
H     -2.578551   -0.625567   -1.233496
H     -3.044701   -0.067084    0.861668
H     -1.740356    0.346133    2.096093
H     -1.402755   -1.934450    0.728662
H     -0.984045    1.288593   -1.930070
