22

C     -1.933344    1.481129   -0.406177
C      2.875034    1.335539   -0.147829
C     -1.586391    0.102433    0.070474
C     -0.192911   -1.891627   -0.023049
C      1.679608    0.481997    0.198502
C     -0.410191   -0.499978   -0.627641
N      0.779509    0.236394   -0.652605
O     -1.456091   -2.510923   -0.064217
O      1.552023   -0.051404    1.475530
H     -1.982564    1.589947   -1.491835
H     -2.952348    1.716306    0.017926
H     -1.227406    2.196349    0.046207
H      2.636127    2.371262    0.095218
H      3.055417    1.240857   -1.255001
H      3.728573    0.907329    0.384950
H     -2.438508   -0.614632   -0.090608
H     -1.399061    0.142630    1.155490
H      0.514596   -2.459210   -0.650849
H      0.112629   -1.841044    1.036993
H     -0.717684   -0.668451   -1.703711
H     -1.401578   -3.441939   -0.396170
H      0.764562    0.177035    2.075751
