28

C     -2.788980    0.996798   -0.532273
C     -2.731684   -1.169973    0.577788
C      3.753812    0.063888    0.153001
C      0.110147    0.981118   -0.690089
C      1.532744    0.603222   -1.056352
C     -1.924517    0.075291    0.306823
C     -0.642840   -0.279403   -0.414421
C      0.174359   -1.130615    0.485448
C      1.510900   -0.742813    0.998155
C      2.257202    0.034724    0.121154
O     -0.331157   -2.218626    0.798711
O      1.704932    0.611287    1.375742
H     -2.804415    0.622709   -1.584734
H     -3.820074    0.914418   -0.123758
H     -2.406759    2.030110   -0.524295
H     -2.473932   -1.642581    1.545871
H     -3.798280   -0.874531    0.623821
H     -2.551736   -1.875968   -0.265113
H      4.147213   -0.094175   -0.870850
H      4.131595   -0.738510    0.816349
H      4.178510    1.016174    0.524178
H      0.174928    1.546752    0.273052
H     -0.355340    1.641035   -1.432079
H      2.085784    1.475514   -1.466861
H      1.523504   -0.173201   -1.859938
H     -1.700443    0.565908    1.259360
H     -0.906397   -0.805978   -1.354838
H      1.950920   -1.432573    1.724382
