36

C      5.045828   -1.984730   -0.895536
C     -3.685372   -2.966653   -0.017883
C     -2.375787   -3.277557   -0.321629
C     -3.973038   -1.651121    0.295390
C     -1.421419   -2.329691   -0.312229
C     -2.987946   -0.687376    0.303601
C     -1.462066    3.954482    0.141423
C     -0.374477    3.509288    0.895546
C     -1.862216    1.689515   -0.630602
C      3.962930   -0.952342   -0.929528
C     -1.705274   -0.989882    0.003633
C     -2.180825    3.021162   -0.607825
C     -0.782076    1.288944    0.132889
C     -0.034840    2.195871    0.892872
C     -0.535826   -0.140938    0.079901
C      2.007422    0.916837    1.270873
C      1.943363    0.049515    0.073959
Cl    -3.541408    3.585818   -1.542668
N      1.161792    1.845668    1.635621
N      0.659486   -0.688474    0.003232
O      3.906820   -0.092868   -1.862464
O      3.064684    0.769449    2.138838
O      2.992279   -0.884585    0.030825
H      5.704627   -1.908164   -1.776348
H      4.596052   -3.010996   -0.943676
H      5.570315   -1.926695    0.070929
H     -4.451555   -3.725710   -0.026183
H     -2.117829   -4.314986   -0.573264
H     -5.011864   -1.426590    0.532057
H     -0.399012   -2.638124   -0.562691
H     -3.256789    0.308906    0.613723
H     -1.748941    4.994139    0.130908
H      0.192004    4.212014    1.477602
H     -2.351563    0.937386   -1.230266
H      2.060266    0.708056   -0.812203
H      3.392253    1.610432    2.628513
