14

C     -1.874498   -0.100751   -0.292647
C     -0.510980    0.460737    0.027800
C      1.858454    0.130776    0.434179
C      0.552954   -0.604861    0.104614
Br     1.571884    1.025695    2.138955
Br     0.705559   -1.532482   -1.576178
H     -2.241365    0.443773   -1.201465
H     -2.583276    0.139569    0.510757
H     -1.821089   -1.164067   -0.559414
H     -0.170102    1.207741   -0.720315
H     -0.545366    0.971672    1.011665
H      2.698889   -0.568345    0.467532
H      1.968130    0.901374   -0.361577
H      0.390805   -1.310830    0.937694
