33

C      4.597416   -0.018710   -0.181264
C     -4.575616    0.079058    0.719227
C      4.093329   -0.950768    0.699521
C      3.775478    0.826696   -0.891041
C     -3.703211    0.738090    1.565699
C     -4.081673   -0.400854   -0.472315
C      2.729435   -1.013618    0.851828
C      2.385466    0.763878   -0.737218
C     -2.380177    0.899938    1.208860
C     -2.757672   -0.232871   -0.817633
C      1.885027   -0.166184    0.142011
C     -1.877507    0.422665    0.018037
C      0.446715   -0.332003    0.374147
C     -0.440450    0.609010   -0.348499
N      0.121212   -1.735495    0.189972
O     -0.058449    1.919702   -0.071492
Cl     0.691401    0.000000    0.000000
H      5.681032    0.013786   -0.286256
H     -5.632672   -0.052518    0.999865
H      4.757956   -1.616650    1.257183
H      4.200868    1.555180   -1.581613
H     -4.093591    1.113584    2.499963
H     -4.747488   -0.920953   -1.151909
H      2.358159   -1.756543    1.551977
H      1.761770    1.434756   -1.313315
H     -1.727195    1.416418    1.887905
H     -2.396324   -0.630993   -1.781460
H      0.289706   -0.141979    1.478234
H     -0.369086    0.383149   -1.437241
H     -0.896902   -1.909849    0.096953
H      0.451919   -2.256249    1.031951
H      0.202521    1.960325    0.872789
H     -0.691401    0.000000    0.000000
