14

C      1.475958    0.072503    0.547745
C     -1.495488    0.002304    0.542254
C      0.668354   -0.489359   -0.575022
C     -0.679665    0.174258   -0.728072
I     -0.453901    2.197021   -1.271267
H      1.566480    1.182495    0.510487
H      2.506237   -0.321515    0.468347
H      1.031849   -0.258269    1.504656
H     -2.447968    0.566274    0.417793
H     -0.944013    0.296980    1.431205
H     -1.743143   -1.097407    0.590062
H      1.226096   -0.405517   -1.524515
H      0.533888   -1.574110   -0.384646
H     -1.244684   -0.345659   -1.529025
