42

C     -4.447766   -1.510538    0.958112
C     -5.118551    0.656514   -0.051793
C      5.025377    1.349754    2.648903
C      1.818546   -1.571869   -2.840450
C      3.152275   -1.426799   -2.521045
C      0.887677   -1.057152   -1.965482
C      4.745483   -0.489306   -0.756655
C     -2.297746    0.802975   -1.024863
C     -0.626052    0.527875    0.784961
C     -3.940028   -0.111902    0.539692
C      5.488378    0.689274    1.416066
C      3.527109   -0.793826   -1.363937
C     -1.493063    1.579125    0.035867
C      1.202445   -0.402557   -0.771315
C      4.524322    0.166666    0.423681
C      2.599604   -0.288304   -0.496916
N     -2.907224   -0.309968   -0.392777
O      6.709051    0.556907    1.189748
O     -2.358095    2.079146    1.001744
O      0.311661    0.054431   -0.006546
O      3.195130    0.262730    0.535409
H     -3.850246   -1.794216    1.866679
H     -4.252572   -2.226090    0.144914
H     -5.522541   -1.437442    1.258208
H     -5.919599    0.737848    0.697864
H     -4.796814    1.685455   -0.297082
H     -5.498470    0.076731   -0.903894
H      5.853392    1.489143    3.385259
H      4.292400    0.687886    3.206394
H      4.484616    2.295267    2.453489
H      1.533694   -2.074619   -3.758035
H      3.893044   -1.820552   -3.179719
H     -0.165635   -1.191689   -2.221170
H      5.732827   -0.736263   -1.151140
H     -1.631218    0.518403   -1.841568
H     -3.043597    1.501137   -1.481576
H     -1.417295   -0.246712    1.101631
H     -0.334928    0.965631    1.777513
H     -3.649973    0.367173    1.469491
H     -0.897596    2.336392   -0.448827
H     -2.422651   -1.197271   -0.427502
H     -2.385371    3.077757    1.006670
