42

C     -5.295176    0.353527    0.219809
C     -3.700588   -1.472446   -0.376051
C      6.914633   -0.330583    0.501897
C      0.617856   -2.494810   -0.707682
C      1.968642   -2.670760   -0.504658
C      0.123609   -1.211349   -0.667906
C      4.168866   -1.446187   -0.034454
C     -2.417657    1.063376    0.657390
C     -0.390037    2.112201   -0.440226
C     -4.124113   -0.051061   -0.661355
C      5.712804    0.517884    0.397621
C      2.805718   -1.605355   -0.268660
C     -1.455293    2.203109    0.614199
C      0.932241   -0.091919   -0.430812
C      4.412087   -0.081440    0.132992
C      2.302622   -0.334881   -0.231008
N     -3.050765    0.900615   -0.602573
O      5.777800    1.764297    0.531631
O     -2.154030    3.416584    0.307235
O      0.422817    1.094909   -0.404857
O      3.247600    0.517112    0.001721
H     -5.059594    0.453930    1.273639
H     -5.828464    1.230981   -0.148168
H     -6.019743   -0.510571    0.144779
H     -4.594878   -2.069366   -0.038451
H     -3.391140   -1.930108   -1.336382
H     -2.923614   -1.535698    0.413334
H      6.649906   -1.164812    1.198433
H      7.084032   -0.753336   -0.524846
H      7.794603    0.171967    0.907519
H     -0.049004   -3.335581   -0.893733
H      2.392879   -3.653253   -0.527196
H     -0.933565   -1.090542   -0.843333
H      4.871644   -2.246176    0.003601
H     -3.151946    1.175308    1.502330
H     -1.870133    0.134336    0.919205
H      0.102957    3.149523   -0.414517
H     -0.894048    2.157610   -1.477739
H     -4.515276   -0.032887   -1.707039
H     -1.002948    2.408970    1.628508
H     -3.236999    1.778541   -1.107780
H     -2.244303    3.508341   -0.675044
