60

C     -2.381592   -1.315399   -1.673218
C      2.761039   -1.599632    0.087725
C     -2.374331   -1.564283    1.374823
C     -1.102612   -0.926849    1.952883
C     -3.892360    1.612041   -0.608251
C      1.851386   -0.440491    2.348622
C     -2.689164    1.066547   -1.327489
C      3.202218    0.254200    2.110230
C     -4.430494   -0.675875    0.250196
C      1.615115    0.203106   -1.231468
C      5.115734    1.836086   -0.628363
C     -2.991241   -0.449114    0.542301
C     -4.974957    0.588166   -0.397866
C     -0.156980   -0.737317    0.824387
C      1.100112   -0.056816    1.160938
C      0.216581   -0.319888   -1.515934
C      4.492206    0.650145    0.009748
C     -0.722909    0.018957   -0.351942
C     -2.137622   -0.190127   -0.656930
C      2.154520   -0.231061    0.068195
C      3.185766    0.723129    0.661447
O      6.351521    1.529909   -1.181176
O     -5.687917    0.325477   -1.554870
O      0.232856   -1.689463   -1.767664
O      5.099827   -0.400172   -0.021037
O      2.660290    2.020128    0.586246
H     -1.845459   -1.074214   -2.634916
H     -2.143150   -2.296974   -1.277102
H     -3.461392   -1.239085   -1.941721
H      1.997160   -2.421969    0.208389
H      3.367627   -1.747313   -0.823172
H      3.451325   -1.739974    0.946362
H     -3.047128   -1.901128    2.179229
H     -2.051664   -2.422202    0.756270
H     -1.356321    0.026800    2.466204
H     -0.686732   -1.671709    2.644693
H     -3.638873    2.163816    0.320245
H     -4.330678    2.390338   -1.294404
H      1.439431   -0.029919    3.285235
H      2.018310   -1.522389    2.458292
H     -1.919540    1.887314   -1.305658
H     -2.952278    0.924084   -2.372273
H      4.048565   -0.388120    2.350044
H      3.289907    1.158592    2.778279
H     -4.937660   -0.830476    1.248532
H     -4.649899   -1.582358   -0.324434
H      1.609556    1.308188   -1.341769
H      2.257324   -0.199676   -2.055751
H      5.279826    2.658838    0.096165
H      4.450975    2.152790   -1.461826
H     -2.933215    0.466293    1.203156
H     -5.712935    1.065163    0.313001
H      0.085337   -1.767638    0.426797
H      0.898644    1.047478    1.199023
H     -0.136131    0.174594   -2.442981
H     -0.551974    1.117872   -0.169492
H      6.900485    2.333927   -1.315643
H     -5.683990    1.127152   -2.130788
H      1.114258   -2.019602   -2.053101
H      3.333296    2.620103    1.003586
