24

C     -1.963705   -0.348441    0.778087
C     -0.784450   -1.549244   -0.975991
C      0.925333    0.075974    1.204195
C     -0.963102   -0.212363   -0.394017
C      1.578919    0.546639   -0.081103
C      2.502269   -0.330503   -0.748465
C     -0.347264    2.072429    0.284415
C      0.150910    0.652511   -0.030856
O      3.656987    0.048292   -1.066478
O      2.196297   -1.624749   -1.079981
O      0.471654    2.955636    0.622028
O     -1.679814    2.415611    0.208498
H     -3.012170   -0.394769    0.422904
H     -1.776539   -1.354490    1.256089
H     -1.888779    0.474612    1.484708
H     -1.794571   -2.072663   -1.143593
H     -0.324506   -1.620252   -1.957640
H     -0.277248   -2.270700   -0.300990
H      0.955499    0.662642    2.115365
H      0.942654   -1.022317    1.309094
H     -1.607896    0.337521   -1.163006
H      2.117185    1.551769    0.122855
H      2.896860   -2.366204   -1.183187
H     -1.974523    3.373059    0.317070
