84

C      5.344188   -2.250669    0.310832
C      6.039825   -0.892158    2.197704
C     -2.780405   -1.997747   -0.948993
C     -5.458021    0.461450   -1.663348
C      0.313641    1.496091    1.339490
C     -0.218665   -0.473518   -1.896918
C      1.063225   -1.371846    0.600191
C     -0.362688   -1.598680    0.845338
C     -2.836731    1.024540   -1.504544
C     -1.450023    1.463439   -1.161653
C      5.794475    0.195373    0.025092
C      1.271466    2.018226   -0.819771
C      4.970217    1.432343   -0.075947
C      2.676059    2.294241   -0.398295
C     -3.242417   -1.420367    1.368437
C     -5.459846    1.457404    0.525592
C      1.605236   -0.230438    0.193468
C     -4.677672   -1.751575    1.265443
C     -3.413002    0.353976   -0.253767
C     -1.244443   -0.500628    0.383052
C      3.061874   -0.162244   -0.008637
C     -5.479117   -0.991413    0.279312
C      3.812402   -0.515128    1.263706
C      3.750830    0.974785   -2.099483
C      5.238204   -0.866195    0.915952
C     -2.656683   -0.918994    0.037795
C     -4.882101    0.256622   -0.250326
C      0.683836    0.912205   -0.028230
C     -0.580613    0.327115   -0.675971
C      3.577007    1.096156   -0.610426
O     -5.040885    2.639200   -0.050483
O     -5.224402   -1.694015    2.569342
O     -5.926009   -1.813496   -0.786514
O      3.809204    0.503823    2.178429
O      3.499105   -0.061280   -2.724894
O      4.216027    2.095676   -2.766220
H      5.741660   -2.167097   -0.743346
H      6.081600   -2.890473    0.838046
H      4.380520   -2.790079    0.322242
H      6.869665   -1.657666    2.121717
H      6.575854    0.057131    2.399293
H      5.440351   -1.251732    3.069374
H     -3.401374   -2.862542   -0.564576
H     -1.808755   -2.507679   -1.220503
H     -3.237111   -1.730964   -1.919181
H     -5.465831    1.534033   -1.925498
H     -4.914278   -0.091832   -2.419458
H     -6.537968    0.158342   -1.587209
H      1.095698    2.262057    1.623595
H      0.362829    0.742552    2.139088
H     -0.629231    2.076817    1.310826
H      0.436559    0.145490   -2.562407
H     -1.169367   -0.583840   -2.499775
H      0.268124   -1.426455   -1.712354
H      1.736336   -2.224082    0.769203
H     -0.616538   -2.596697    0.429971
H     -0.477664   -1.736788    1.962537
H     -2.939530    0.420454   -2.398993
H     -3.448620    1.952179   -1.657147
H     -1.473057    2.338110   -0.515575
H     -0.978468    1.810304   -2.128778
H      5.953753   -0.181120   -1.025119
H      6.828053    0.516694    0.348795
H      0.684367    2.962231   -0.647352
H      1.269306    1.881613   -1.915401
H      4.932151    2.046769    0.834114
H      5.471096    2.087032   -0.847658
H      2.821508    2.643866    0.618655
H      3.057977    3.118460   -1.070005
H     -2.649927   -2.289615    1.718761
H     -3.120835   -0.562333    2.070013
H     -6.548843    1.429132    0.567086
H     -5.091590    1.352585    1.582761
H     -4.756537   -2.845119    0.990760
H     -3.087279    1.053064    0.578969
H     -1.389835    0.193621    1.267241
H      3.313648   -0.988734   -0.723605
H     -6.449478   -0.720014    0.798929
H      3.356658   -1.418034    1.706792
H     -4.672056    3.213269    0.671586
H     -4.514323   -1.985940    3.180530
H     -6.364956   -2.623767   -0.433369
H      4.638628    0.579135    2.708034
H      4.634015    2.065391   -3.686361
