39

C     -3.311355   -1.766848    0.228748
C      3.635362   -1.841322   -0.751016
C      2.876307   -2.968864   -0.962298
C      2.978608   -0.649010   -0.453557
C      1.516486   -2.976407   -0.894656
C     -2.671678    1.651076    0.304117
C     -2.956426    0.424510    1.142723
C     -0.493155    2.918741    0.524311
C      2.989780    3.571720    0.120457
C     -1.194525    1.780071    0.269998
C      1.611149   -0.624772   -0.378743
C      0.852073   -1.781143   -0.595758
C      0.889658    2.902257    0.471312
C     -0.479345    0.600703   -0.044973
C      0.881175    0.611318   -0.089166
C     -1.311759   -0.568314   -0.339722
C     -0.606454   -1.855988   -0.518125
C      1.623222    1.752057    0.163952
N     -2.384185   -0.738769    0.583554
O     -1.034100   -2.554201   -1.672976
O      1.755392    3.966743    0.701011
O      2.913127    2.177013    0.222744
H     -4.261750   -1.665557    0.772776
H     -3.481997   -1.845690   -0.868684
H     -2.870746   -2.756742    0.522909
H      4.704335   -1.800998   -0.796320
H      3.380700   -3.907265   -1.196035
H      3.514533    0.252725   -0.282182
H      0.974368   -3.898494   -1.071483
H     -2.991581    1.469137   -0.760510
H     -3.167763    2.534425    0.712905
H     -2.445606    0.612416    2.123373
H     -4.046499    0.281344    1.306495
H     -1.045958    3.837594    0.769161
H      3.861488    3.918833    0.677979
H      3.020539    3.936546   -0.925571
H     -1.813597   -0.351290   -1.347718
H     -0.845116   -2.563779    0.320459
H     -0.564709   -2.083774   -2.428669
