35

C      0.353087    1.972645    1.655771
C      3.031725    1.203687   -1.300985
C     -1.303223   -0.795170   -1.950077
C     -2.292474    0.812704   -0.413506
C      2.036621   -0.999417   -0.634225
C      0.787429   -1.327604    0.204376
C     -1.015254    0.025328    2.189893
C     -1.964039   -1.473548    0.352161
C     -0.231057    0.660436    1.331949
C      2.023884    0.522994   -0.422713
C     -1.565272   -1.290301    1.787219
C     -1.367006   -0.378951   -0.503832
C      0.003863   -0.054061    0.048541
O     -1.677000   -2.187769    2.642144
O      0.713388    0.807299   -0.763199
H      1.223507    1.918245    2.362895
H     -0.407435    2.687739    2.056020
H      0.735574    2.468006    0.739631
H      3.929377    0.532263   -1.356319
H      3.386236    2.118219   -0.753984
H      2.662362    1.453682   -2.293866
H     -0.326581   -0.465611   -2.358925
H     -1.410062   -1.892015   -2.064214
H     -2.154022   -0.350891   -2.537083
H     -1.767301    1.763836   -0.641588
H     -3.127269    0.626776   -1.122488
H     -2.758241    0.896671    0.595408
H      2.922429   -1.445972   -0.180939
H      1.877641   -1.220034   -1.693374
H      1.063061   -1.559248    1.244028
H      0.300215   -2.159694   -0.324752
H     -1.227792    0.464554    3.132890
H     -3.078255   -1.490747    0.261155
H     -1.636350   -2.492201    0.067323
H      2.258237    0.648148    0.644665
