49

C     -3.283075    2.123293   -0.632457
C      3.735467    3.605648   -1.482215
C     -2.434061    0.836225   -0.698458
C      2.255686   -3.697996    1.286305
C      3.450673   -3.452182    0.653584
C     -3.029566   -0.054587    2.019912
C      1.169645   -2.828516    1.169582
C      3.568192   -2.308245   -0.112245
C     -2.402378    1.051405    1.670857
C     -0.326075   -1.424637   -1.279941
C     -2.874838   -1.395230    1.333454
C     -1.538289   -2.111646   -0.623118
C     -0.597817    2.089191    0.244036
C      0.732843    1.687460   -0.280391
C      1.322948   -1.700866    0.394506
C      2.513800   -1.437176   -0.237658
C      1.153848    0.440574   -0.436230
C      1.606470    2.820713   -0.635268
C     -0.800517   -0.385261    0.761596
C     -1.460663    0.951978    0.491753
C      0.323872   -0.710792   -0.105508
N      2.421634   -0.099279   -0.782969
N     -1.840893   -1.311780    0.433416
O      1.282695    4.017206   -0.518143
O      2.861119    2.549541   -1.127872
H     -4.298571    1.819624   -1.020207
H     -3.413404    2.478153    0.388948
H     -2.897939    2.859103   -1.349961
H      4.404548    3.221748   -2.279829
H      4.284012    3.894159   -0.558970
H      3.176976    4.509485   -1.805447
H     -1.849074    0.938280   -1.609412
H     -3.083690   -0.036209   -0.613321
H      2.182352   -4.606962    1.890941
H      4.288068   -4.156858    0.761240
H     -3.717717   -0.027749    2.864407
H      0.243681   -3.067360    1.690559
H      4.505773   -2.126276   -0.601775
H     -2.503241    1.998814    2.146660
H      0.321483   -2.280378   -1.641885
H     -0.545959   -0.835345   -2.141727
H     -2.612814   -2.108395    2.169544
H     -3.823059   -1.742271    0.904080
H     -2.318089   -2.117692   -1.412814
H     -1.313600   -3.185444   -0.424083
H     -0.422717    2.728552    1.151823
H     -1.041608    2.765529   -0.527681
H     -0.562371   -0.507276    1.838425
H      3.186240    0.329725   -1.326040
