32

C      3.677734   -0.424795    1.905355
C     -1.925023   -0.859647    1.212326
C     -0.660859   -1.392700    0.605905
C      1.212898    0.405939   -2.040589
C      0.337538    1.458542   -1.409060
C     -1.676740    1.270984   -0.097977
C      2.928015   -0.975297    0.735022
C     -2.583020    0.217882    0.437299
C     -0.309426   -0.551578   -0.582205
C      1.166871   -0.694025   -0.971308
N     -3.532726    0.882841    1.345383
N     -0.329924    0.868459   -0.293763
O      3.213093   -2.103305    0.294196
O      1.918062   -0.265129    0.120078
H      4.142087   -1.201735    2.513567
H      4.453517    0.256774    1.499098
H      2.996649    0.225226    2.511388
H     -2.645269   -1.729366    1.260371
H     -1.781747   -0.569828    2.293340
H      0.144459   -1.387188    1.368335
H     -0.745010   -2.442844    0.257443
H      2.252335    0.712885   -2.176579
H      0.745689    0.008067   -2.968909
H     -0.365510    1.920372   -2.124702
H      1.020773    2.263803   -1.011009
H     -1.668657    2.182842    0.565790
H     -2.082226    1.636590   -1.073518
H     -3.233606   -0.224104   -0.369921
H     -0.927582   -0.771989   -1.446303
H      1.405381   -1.673394   -1.363689
H     -4.194404    1.465262    0.816237
H     -2.953369    1.490460    1.951146
