57

C      7.524673    0.406063   -2.192535
C      4.447121   -1.204794    1.417820
C      5.657805   -1.892610    1.612668
C     -0.653649    0.282950    0.455819
C     -1.126254    0.762285   -1.797792
C      5.363767   -0.081909   -0.443253
C     -7.932968   -0.412711   -0.508081
C     -6.065999   -0.443691   -1.987640
C      1.785345    0.703508    2.353323
C      4.300483   -0.306434    0.398569
C     -1.589382    0.546781   -0.516016
C     -7.420327   -0.539288   -1.778951
C      0.720956    0.230682    0.176248
C      1.902373   -0.028946    1.028558
C      6.714723   -1.658196    0.762389
C     -7.085055   -0.190137    0.552932
C      0.225363    0.710551   -2.071171
C      6.577750   -0.761229   -0.260820
C     -5.170667   -0.218533   -0.939537
C     -5.721712   -0.096898    0.320940
C     -4.783789    0.139041    1.419479
C     -3.319191    0.205347    1.206060
C      3.045907    0.406298    0.210659
C     -3.053049    0.602048   -0.206138
C      1.185960    0.443235   -1.091001
O      1.687730    2.081438    2.162151
O     -8.301156   -0.762224   -2.820581
O      7.926168   -2.343442    0.953690
O     -7.565028   -0.059466    1.832011
O      0.712860    0.924708   -3.355858
O     -5.307860    0.282839    2.565551
O     -2.883077    1.284193    2.014210
O      7.648710   -0.530970   -1.113755
O     -3.804773   -0.123523   -1.159901
O      2.567755    0.340950   -1.118521
H      6.821419    0.031033   -2.947133
H      7.190688    1.380617   -1.738445
H      8.517544    0.598868   -2.634731
H      3.682095   -1.464782    2.132501
H      5.762677   -2.603633    2.425801
H     -0.960272    0.106312    1.469134
H     -1.856054    0.970525   -2.568692
H      5.318520    0.609011   -1.263434
H     -9.024775   -0.490751   -0.347193
H     -5.630945   -0.540815   -2.990678
H      0.904268    0.284437    2.877199
H      2.674717    0.486870    2.963005
H      1.879030   -1.115185    1.258739
H     -2.814090   -0.740736    1.494296
H      3.168210    1.522282    0.396712
H     -3.424343    1.667345   -0.301797
H      1.017375    2.400932    2.824238
H     -8.019379   -0.868364   -3.787108
H      8.009327   -2.995105    1.705990
H     -8.539797   -0.115812    2.073428
H      0.050035    1.120764   -4.091603
H     -2.937762    1.058269    2.968250
