22

C     -1.750978   -0.445270   -1.381398
C      3.097537   -0.113638    0.060532
C      2.302283    0.875317   -0.494857
C      2.452235   -1.202368    0.603286
C      0.932411    0.780724   -0.507024
C      1.077897   -1.297886    0.591405
C     -1.203308   -0.416482    0.025405
C      0.278472   -0.306794    0.034701
C     -1.796082    0.680556    0.828522
N     -2.670554    1.504143    0.353680
O     -1.433477    0.879735    2.154077
H     -1.497593   -1.396370   -1.892773
H     -1.303322    0.367235   -2.012262
H     -2.843197   -0.365092   -1.392782
H      4.178001   -0.024024    0.062248
H      2.807539    1.735087   -0.923663
H      3.062320   -1.977823    1.038155
H      0.355819    1.583332   -0.954658
H      0.556108   -2.148970    1.014904
H     -1.473418   -1.373301    0.515744
H     -3.045032    1.498540   -0.597906
H     -2.083661    1.163348    2.874663
