38

C     -1.783247    1.185066    1.868063
C     -5.309440    0.003960   -1.598206
C     -4.244382   -0.836945   -1.840175
C     -5.162869    0.937602   -0.594843
C     -3.082529   -0.739706   -1.101850
C     -3.992236    1.032429    0.145956
C      1.978146    0.115187   -0.152707
C     -0.523236    0.812490   -0.185930
C      4.677055    0.429579   -0.768044
C      0.637288   -0.054495    0.161233
C     -2.922709    0.189732   -0.095312
C      2.912536   -0.805646    0.262771
C      6.138750    0.440003   -1.003679
C      0.228438   -1.144903    0.890963
C      2.494378   -1.902171    0.997689
C      1.174093   -2.092788    1.321182
C     -1.215063   -1.077384    1.076301
C     -1.654793    0.274966    0.689813
Cl     3.667286   -3.085377    1.535879
Cl     0.633791   -3.474599    2.249405
O      6.825283   -0.497797   -0.538862
O      6.782281    1.437272   -1.713427
O     -1.936628   -1.999087    1.486728
O      4.266594   -0.685381   -0.023065
H     -1.846004    2.228833    1.520216
H     -2.735893    0.970562    2.407909
H     -0.898480    1.018335    2.520927
H     -6.237450   -0.054400   -2.168853
H     -4.302198   -1.586733   -2.612864
H     -5.998980    1.591474   -0.411088
H     -2.231452   -1.401782   -1.285435
H     -3.894035    1.774928    0.933746
H      2.309169    0.986210   -0.736312
H     -0.237693    1.846123    0.118271
H     -0.783418    0.792640   -1.244495
H      4.376006    1.340733   -0.191537
H      4.091912    0.440779   -1.714920
H      7.799730    1.590289   -1.667693
