24

C     -3.100594    0.477469    0.498821
C     -1.670176    0.066011    0.763169
C      3.264773   -0.675731    0.523289
C      2.281952   -1.615292    0.344664
C      2.945539    0.667297    0.429116
C      0.982910   -1.211464    0.072469
C      1.652672    1.046864    0.158703
C     -1.116061   -0.020783   -1.672406
C     -0.737737    0.541447   -0.314825
C      0.646049    0.125157   -0.025141
Cl    -0.004940    0.550332   -2.934818
H     -3.733456   -0.357988    0.174515
H     -3.060078    1.240901   -0.325925
H     -3.523337    1.029132    1.374604
H     -1.342781    0.470738    1.739176
H     -1.602636   -1.055175    0.876333
H      4.281293   -0.941770    0.735189
H      2.515150   -2.671507    0.415109
H      3.717179    1.422693    0.568964
H      0.254329   -1.991768   -0.058101
H      1.417725    2.094857    0.088101
H     -1.098416   -1.128448   -1.647201
H     -2.158648    0.292059   -1.906996
H     -0.810709    1.644970   -0.353919
