24

C     -3.240568   -0.456534    0.924720
C     -3.160798   -0.035500   -0.386544
C     -2.087040   -0.469804    1.668099
C     -1.963791    0.360517   -0.939592
C     -0.891065   -0.070877    1.106013
C      1.059448   -0.308258   -1.778024
C      2.342421   -0.499538    0.367749
C     -0.779169    0.351982   -0.193782
C      1.790507    0.416756   -0.664718
C      0.418319    0.810438   -0.880715
N      3.035435    0.208057    1.450605
H     -4.206257   -0.771807    1.356266
H     -4.095494   -0.036352   -0.950530
H     -2.149659   -0.803089    2.706466
H     -1.982075    0.676612   -1.971408
H     -0.011062   -0.081948    1.723616
H      0.725698   -1.333156   -1.608477
H      1.246405   -0.053847   -2.829862
H      1.698082   -1.289179    0.736808
H      3.201021   -1.063382   -0.141491
H      2.581520    1.100185   -1.087128
H      0.233535    1.735156   -1.526295
H      3.868001    0.692756    1.095592
H      2.366587    0.920813    1.822633
