30

C     -2.404189   -0.720974    2.023282
C      1.649499   -1.548176   -0.115827
C      1.654759    0.725598    0.462466
C      2.704568   -1.357966   -0.968084
C      2.720178    0.934512   -0.393835
C     -0.039656   -0.697359    1.544774
C     -1.388973   -0.503061    0.897971
C      1.086046   -0.530137    0.626283
C      3.259141   -0.107145   -1.121083
C     -2.394469    1.264173   -0.451239
C     -3.411226    0.540910   -1.230474
F     -3.504352   -0.790041   -1.003046
F     -4.630116    1.197589   -1.007029
F     -3.192304    0.691984   -2.607654
N      4.365410    0.119659   -2.007642
N     -1.582949    0.823256    0.408052
O     -2.321242    2.653163   -0.706827
H     -3.398917   -0.985252    1.672095
H     -2.377797    0.219689    2.624523
H     -1.991587   -1.516539    2.707378
H      1.246991   -2.540882   -0.026526
H      1.258399    1.567802    1.016791
H      3.108413   -2.181625   -1.524064
H      3.181482    1.911323   -0.537407
H     -0.003802   -1.686512    2.036854
H      0.046417    0.071293    2.354931
H     -1.608699   -1.226611    0.120864
H      4.502591    1.095537   -2.348377
H      5.004892   -0.629852   -2.305686
H     -1.538510    3.205645   -0.354550
