24

C      3.243977    0.880863    0.395077
C      2.250813    0.554665    1.291989
C      3.037599    0.609381   -0.941190
C      1.069272   -0.035857    0.845610
C      1.864244    0.025995   -1.363238
C     -1.298451   -1.583559    0.060961
C     -1.978586    0.866586    0.164847
C      0.846983   -0.312143   -0.476410
C     -1.746784   -0.343221   -0.664190
C     -0.415028   -0.928192   -0.935971
N     -3.023815    0.531875    1.145009
H      4.179489    1.344828    0.721538
H      2.433289    0.776150    2.334804
H      3.832940    0.875206   -1.623688
H      0.361291   -0.259967    1.623483
H      1.757087   -0.162316   -2.410879
H     -1.115851   -1.552212    1.144354
H     -1.832155   -2.539598   -0.221091
H     -2.447823    1.701809   -0.441152
H     -1.111563    1.289308    0.657697
H     -2.553155   -0.500174   -1.434190
H     -0.367357   -1.444786   -1.945103
H     -3.014205   -0.518738    1.315548
H     -3.972212    0.724094    0.756184
