25

C      2.684213   -0.268466    1.320832
C     -4.256105    0.802781    0.236503
C     -0.010553    0.699749    0.334780
C     -0.107281   -1.536424   -0.462795
C     -1.385097    0.733369    0.303061
C     -1.484293   -1.496475   -0.492347
C      2.091576   -0.551696   -0.043170
C      0.628750   -0.451843   -0.054070
C     -2.125527   -0.352003   -0.106090
C      2.640251    0.473838   -0.966214
O      1.884032    1.239712   -1.595063
O      4.032625    0.564844   -1.117825
O     -3.511016   -0.332806   -0.143286
H      3.693518   -0.721505    1.334213
H      2.818758    0.829715    1.422805
H      2.087828   -0.655104    2.148742
H     -5.302976    0.673522   -0.158957
H     -3.809304    1.729158   -0.146421
H     -4.352490    0.769404    1.340261
H      0.534557    1.584189    0.666328
H      0.381614   -2.460540   -0.775606
H     -1.914147    1.618066    0.600582
H     -2.048097   -2.356880   -0.815947
H      2.429822   -1.553323   -0.388463
H      4.399344    1.018717   -1.955922
