29

C      4.243648    0.930757    0.140646
C     -3.076024    1.649596    0.134721
C      3.324097    0.000600   -0.610169
C      1.924627   -0.000315   -0.025916
C      1.043512   -0.939988   -0.804538
C     -0.362383   -0.994068   -0.276900
C     -1.037014    0.360798   -0.326685
C     -3.833484   -1.741394   -0.228916
C     -2.467075    0.258719    0.216233
O     -3.766030   -2.093748    0.959032
O     -3.210420   -0.592168   -0.639033
H      4.679067    1.696695   -0.518717
H      5.085483    0.306503    0.531894
H      3.730084    1.457256    0.973261
H     -3.075088    1.977812   -0.922429
H     -2.378205    2.335513    0.680749
H     -4.054573    1.708225    0.624560
H      3.283983    0.344570   -1.660711
H      3.696469   -1.045800   -0.617272
H      1.979218   -0.342185    1.019208
H      1.517324    1.026752   -0.005305
H      0.964971   -0.610407   -1.873444
H      1.480665   -1.955075   -0.796545
H     -0.296298   -1.311920    0.788009
H     -0.949493   -1.762111   -0.810961
H     -1.114882    0.693098   -1.379776
H     -0.490252    1.111169    0.250684
H     -4.397310   -2.363413   -0.938087
H     -2.444616   -0.105470    1.249941
