33

C     -0.325499   -1.353083    1.516748
C      0.269615   -1.968526   -0.719224
C      0.856668    1.069481    1.329265
C      2.738264   -0.635889   -0.286627
C     -2.203130    0.718344    0.385770
C     -1.376781    1.966498    0.071891
C     -1.144166    0.420540   -1.637390
C     -1.602979   -0.393114   -0.410557
C     -0.311446    1.419885   -0.820484
C     -0.244303   -0.814638    0.114797
C      0.562855    0.443352   -0.022152
N      1.733186    0.222938   -0.774948
H      0.676250   -1.365154    1.948689
H     -1.078933   -0.854448    2.147107
H     -0.659543   -2.410967    1.445199
H      0.700438   -1.691376   -1.670304
H      1.026391   -2.502157   -0.115385
H     -0.606766   -2.640672   -0.863089
H      0.008972    0.961578    2.009113
H      1.026478    2.164852    1.202994
H      1.721808    0.558685    1.785895
H      2.975177   -1.463176   -1.018899
H      3.706431   -0.033213   -0.303655
H      2.669252   -0.994530    0.734966
H     -2.349754    0.555968    1.442866
H     -3.226120    0.917017   -0.042872
H     -0.988885    2.432357    0.995888
H     -1.955266    2.711578   -0.512009
H     -2.042360    0.893824   -2.057205
H     -0.548573   -0.166072   -2.320087
H     -2.259065   -1.206824   -0.672862
H      0.240344    2.114354   -1.420787
H      2.011438    0.922589   -1.462654
