33

C     -0.068048    2.044540   -0.381114
C      1.701804    0.523439   -1.144306
C     -0.663822    0.383630    1.745345
C      2.210868    0.169632    1.712859
C     -2.056022   -0.127673   -1.135528
C     -2.107720   -1.240926   -0.078776
C     -0.198996   -1.502135   -1.363894
C     -0.635073   -0.040369   -1.602578
C     -0.649725   -1.513083    0.109824
C      0.285842    0.612954   -0.572521
C      0.108133   -0.272805    0.608038
N      1.317045   -0.794772    1.181202
H      0.256156    2.490551    0.564403
H     -1.138033    2.290607   -0.490982
H      0.453417    2.629028   -1.190270
H      2.255732    1.480100   -1.000956
H      1.669573    0.356098   -2.243659
H      2.259340   -0.336236   -0.706855
H     -1.172566    1.313819    1.419216
H     -1.328715   -0.341367    2.247286
H      0.064071    0.724465    2.541450
H      3.253082   -0.131145    1.476375
H      2.186014    0.191076    2.848530
H      2.091710    1.194746    1.381769
H     -2.688294   -0.360171   -2.008566
H     -2.457741    0.753973   -0.656151
H     -2.537757   -2.120320   -0.602589
H     -2.646679   -0.945122    0.818128
H     -0.815207   -2.198701   -1.950514
H      0.877168   -1.630756   -1.465562
H     -0.485146    0.284020   -2.614732
H     -0.390600   -2.412727    0.629817
H      1.050189   -1.474372    1.925312
