46

C     -0.717237   -1.909814   -2.013224
C      0.354449    0.080669    2.810347
C     -5.063518    1.413020   -0.572428
C     -4.973588   -0.113078   -0.576372
C      5.326377   -0.308543    0.066071
C      4.512337    0.992392    0.011779
C     -3.683522    1.767020   -0.095895
C     -3.538983   -0.369968   -1.010042
C      4.158863   -1.303276    0.026262
C      3.462810    0.646441    1.051805
C     -1.661305    0.664518    0.093826
C      1.835791   -0.728458   -0.107181
C     -0.586049   -0.218254   -0.433188
C      0.616565   -0.099552    0.499936
N     -2.794814    0.836010   -0.813628
N      3.034331   -0.641727    0.628028
O     -0.909303   -1.500193   -0.732925
O      0.382009   -0.733224    1.712277
H     -1.040737   -2.986886   -2.071975
H     -1.378997   -1.349111   -2.693776
H      0.331997   -1.919196   -2.362609
H      1.313021    0.611259    2.952448
H      0.203055   -0.558982    3.705355
H     -0.439253    0.850522    2.775517
H     -5.182963    1.773205   -1.622753
H     -5.842918    1.769280    0.114579
H     -5.681245   -0.580481   -1.258460
H     -5.156927   -0.430978    0.464909
H      5.763629   -0.377698    1.065485
H      6.004829   -0.414788   -0.771881
H      4.070018    1.118943   -0.996094
H      5.131308    1.854598    0.333783
H     -3.406139    2.817766   -0.286300
H     -3.636102    1.503496    0.981948
H     -3.201145   -1.238090   -0.434391
H     -3.549305   -0.555452   -2.123531
H      4.412613   -2.264768    0.478374
H      3.913656   -1.405373   -1.071198
H      4.038243    0.611167    2.026363
H      2.666964    1.416554    1.097539
H     -2.041633    0.360472    1.092832
H     -1.228748    1.678350    0.228945
H      1.996807   -0.206244   -1.095882
H      1.663901   -1.789763   -0.379687
H     -0.212409    0.257578   -1.391764
H      0.733265    0.980636    0.696774
