25

C     -3.006794   -0.177891    1.157215
C     -1.925296    0.864177   -1.341308
C     -2.255853   -1.057912    0.165145
C      3.886613    0.006867    0.164509
C      3.134421   -0.680301   -0.752484
C      3.264345    0.796553    1.099482
C      1.736195   -0.574279   -0.732035
C      1.867469    0.891544    1.106280
C     -1.215732   -0.264727   -0.581925
C      1.098782    0.210640    0.195780
O     -0.247642    0.308781    0.210545
H     -2.290590    0.501706    1.692236
H     -3.478135   -0.787393    1.955065
H     -3.805604    0.400938    0.664105
H     -1.187575    1.445043   -1.936321
H     -2.398425    1.580917   -0.641347
H     -2.662702    0.455238   -2.058472
H     -3.017817   -1.418896   -0.554851
H     -1.851087   -1.913975    0.700952
H      4.970479   -0.076746    0.146912
H      3.631897   -1.294787   -1.478944
H      3.878316    1.324896    1.807397
H      1.221197   -1.147606   -1.488089
H      1.448438    1.529348    1.868096
H     -0.794902   -0.922135   -1.367942
