24

C      3.868234   -0.450419   -0.209926
C     -3.544048   -0.119673    0.790383
C      1.689709    0.001317    0.073566
C     -1.855890    1.198605   -0.101263
C      0.495583    0.740101   -0.509962
C     -0.699268    0.380350    0.388145
O      0.230509    0.272422   -1.784570
O     -0.891067   -0.968228    0.431881
O      2.788788    0.235123   -0.764088
O     -2.974629    1.125463    0.650399
H      3.635989   -1.519986   -0.161615
H      4.793714   -0.204327   -0.756256
H      3.984123   -0.100114    0.847927
H     -4.505456   -0.030178    1.404680
H     -3.707071   -0.663626   -0.146657
H     -2.856212   -0.741716    1.442468
H      1.512394   -1.079373    0.143139
H      1.947507    0.426258    1.064114
H     -2.087867    0.924368   -1.166665
H     -1.548668    2.286988   -0.181440
H      0.678735    1.818297   -0.496550
H     -0.495189    0.725521    1.432952
H      0.637533   -0.604373   -1.962854
H     -1.097454   -1.385947   -0.427808
