38

C     -1.394506   -1.988183   -0.926097
C      1.529758   -1.602360    1.305727
C     -4.689173    1.476694    0.457143
C      4.525029    1.718874   -0.771484
C     -3.581181    1.747624    1.222172
C     -4.640571    0.404433   -0.404234
C      4.434559    0.510033   -1.414467
C      3.566799    2.106665    0.129674
C     -2.442661    0.956607    1.125451
C     -3.503644   -0.376910   -0.493759
C      3.357512   -0.306730   -1.133753
C      2.499983    1.259677    0.385465
C     -1.149846   -0.976899    0.148702
C      1.255004   -0.890654    0.004092
C     -2.359693   -0.123300    0.274393
C      2.373746    0.040831   -0.238066
N      0.000499   -0.183629   -0.001590
Cl     0.686520    0.000000    0.000000
H     -1.655207   -1.545208   -1.905975
H     -2.221324   -2.670608   -0.645234
H     -0.526193   -2.651021   -1.116096
H      2.526458   -2.116860    1.163368
H      0.753954   -2.296419    1.618841
H      1.706484   -0.857483    2.100505
H     -5.593667    2.068384    0.503942
H      5.369536    2.397524   -0.969352
H     -3.621791    2.596172    1.902967
H     -5.508391    0.195237   -1.001965
H      5.214908    0.250403   -2.115847
H      3.666504    3.071122    0.623480
H     -1.595590    1.203241    1.749935
H     -3.509481   -1.211145   -1.183996
H      3.326865   -1.255235   -1.666467
H      1.766146    1.571813    1.084070
H     -1.067898   -1.531633    1.129037
H      1.212238   -1.596066   -0.849590
H     -0.025165    0.605009    0.672013
H     -0.686520    0.000000    0.000000
