25

C     -3.433310    0.494320   -0.809315
C     -1.791544   -1.610943    0.469783
C     -2.160621    0.796912   -0.066359
C      3.892022    0.393034   -0.148994
C      3.453073    0.617335    1.135333
C      3.046373    0.036367   -1.174851
C      2.104005    0.468819    1.364625
C      1.686646   -0.110097   -0.929439
C     -1.163065   -0.356199   -0.145042
C      1.230128    0.107253    0.335638
O     -0.082453   -0.012760    0.667360
H     -3.716408    1.386691   -1.397988
H     -3.325465   -0.410331   -1.472936
H     -4.229596    0.251822   -0.087046
H     -1.674684   -1.531619    1.562188
H     -1.215969   -2.475110    0.084737
H     -2.870158   -1.670872    0.229725
H     -2.383621    0.925052    1.019050
H     -1.704244    1.737116   -0.413194
H      4.944197    0.503432   -0.351931
H      4.105979    0.897283    1.947664
H      3.395119   -0.138627   -2.181011
H      1.721765    0.637068    2.362879
H      1.046080   -0.390425   -1.751579
H     -0.874248   -0.545520   -1.175180
