46

C     -1.516647   -1.079762    2.702262
C      1.360449   -2.139238   -1.674635
C     -4.117121    1.529113   -0.926702
C     -4.861444    0.352037   -1.485993
C      4.186207    1.836158   -0.185742
C      5.030625    1.109612    0.803294
C     -3.162602    0.946223    0.051265
C     -3.802132   -0.733249   -1.435539
C      3.010761    0.931353   -0.418138
C      3.985162    0.305572    1.587781
C     -1.592417   -0.734593   -0.651663
C      1.703426   -0.239777    1.164854
C     -0.687459   -0.732162    0.560838
C      0.756141   -0.794792    0.133345
N     -2.940095   -0.397222   -0.348436
N      3.024900   -0.112926    0.583854
O     -1.058449   -1.612379    1.527729
O      1.056178   -2.028787   -0.354807
H     -0.788512   -0.429542    3.226270
H     -2.479623   -0.542582    2.610951
H     -1.717471   -1.923628    3.409366
H      0.475858   -1.768261   -2.271351
H      1.375772   -3.239011   -1.928232
H      2.244085   -1.621162   -2.032461
H     -4.869535    2.202527   -0.451102
H     -3.548575    2.068297   -1.717262
H     -5.187972    0.526311   -2.533648
H     -5.721242    0.077713   -0.831994
H      3.809915    2.791553    0.259672
H      4.723840    2.062102   -1.136478
H      5.529128    1.837758    1.479942
H      5.740195    0.443975    0.281597
H     -2.188808    1.483728    0.050002
H     -3.544086    1.038233    1.091227
H     -4.291658   -1.726294   -1.308004
H     -3.310899   -0.731799   -2.427889
H      2.087612    1.546300   -0.364195
H      3.128795    0.503744   -1.441417
H      4.448912   -0.535080    2.121316
H      3.501117    1.018660    2.287047
H     -1.595888   -1.758828   -1.102952
H     -1.222419   -0.047550   -1.436652
H      1.361495    0.821558    1.336272
H      1.671145   -0.715459    2.139111
H     -0.837477    0.298139    1.007588
H      0.830815   -0.086584   -0.751139
