28

C      3.973209    0.148266   -0.019413
C     -0.156040   -2.068438   -0.210340
C      3.174568    0.943525    0.970997
C     -3.673671    1.339586   -0.492646
C     -3.574550    0.768452    0.759171
C     -2.642661    1.238185   -1.396004
C     -2.440114    0.085955    1.126932
C     -1.506198    0.534007   -0.979112
C     -1.375450   -0.041487    0.248636
C      1.088186   -0.048551    0.284209
C     -0.150640   -0.774831    0.611833
O      1.378842    0.323917   -0.876541
O     -0.156491   -1.084771    1.980597
O      1.997854    0.251840    1.293051
H      4.909994   -0.187929    0.472591
H      4.258812    0.754219   -0.917051
H      3.390578   -0.729075   -0.328968
H      0.521081   -2.830252    0.234059
H     -1.184149   -2.418574   -0.335412
H      0.247497   -1.819505   -1.216087
H      2.876103    1.891283    0.453616
H      3.763933    1.243866    1.851035
H     -4.559456    1.881142   -0.800163
H     -4.390135    0.860316    1.445729
H     -2.694335    1.677092   -2.385207
H     -2.333820   -0.370745    2.097917
H     -0.725863    0.481024   -1.735606
H     -0.017081   -2.048519    2.143516
