38

C     -2.236640    3.925258   -0.120864
C     -2.614828   -3.154950   -0.713391
C      3.515750   -0.517748   -0.001654
C     -2.355423   -2.879420    0.610690
C     -2.227350   -2.224981   -1.653904
C      2.868183    0.404465   -1.026209
C      2.957195   -0.196948    1.366083
C     -1.726605   -1.701922    0.952017
C     -1.593607   -1.042216   -1.288012
C      1.361345    0.102453   -1.047400
C      1.456764   -0.516459    1.317438
C     -1.326426   -0.750529    0.032063
C      0.850957    0.418401    0.315546
C     -1.149443    1.712575   -0.236810
C     -0.652453    0.504485    0.410393
O     -1.089224    1.938502   -1.484276
O     -0.895691    0.655527    1.794587
O     -1.744956    2.738925    0.487753
H     -3.053420    3.613173   -0.806159
H     -2.718309    4.508814    0.709004
H     -1.447011    4.498396   -0.619292
H     -3.107187   -4.067138   -1.035416
H      3.343555   -1.579677   -0.244043
H      4.612935   -0.329528   -0.014270
H     -2.662522   -3.614622    1.345354
H     -2.400519   -2.375958   -2.723611
H      2.973044    1.435230   -0.631597
H      3.309785    0.279577   -2.021378
H      3.098116    0.912545    1.523608
H      3.472279   -0.781559    2.145185
H     -1.519839   -1.483303    2.012860
H     -1.286446   -0.309546   -2.024647
H      1.299039   -0.987049   -1.298993
H      0.919776    0.682037   -1.860529
H      1.060788   -0.289387    2.322150
H      1.381055   -1.579051    1.055492
H      1.225365    1.450135    0.576178
H     -1.898033    0.601496    1.876054
