36

C      3.709382   -0.081681   -1.225076
C      4.650977    0.031452    1.008017
C     -3.366808    2.524787   -0.187942
C     -4.005637   -1.942053   -0.694686
C      2.280297    0.447692    0.646802
C      1.251855   -0.643331    0.302751
C     -0.481114    0.862094   -0.068836
C     -0.995796   -1.302646    0.567735
C     -2.008387    0.757410    0.059018
C     -2.195444   -0.712742   -0.190079
N      3.525983   -0.005571    0.163752
N     -0.043201   -0.254108    0.746301
O     -2.618782    1.567654   -0.890587
O     -3.363552   -1.228263    0.324982
H      4.538530    0.517225   -1.654950
H      2.748931    0.230649   -1.727763
H      3.921972   -1.148073   -1.506583
H      5.453950    0.715772    0.634348
H      5.139571   -0.989816    0.965047
H      4.405378    0.312144    2.045238
H     -2.627434    3.089458    0.438862
H     -3.868033    3.234717   -0.899295
H     -4.137471    2.057916    0.438598
H     -4.942898   -2.357955   -0.293084
H     -4.213842   -1.245480   -1.552204
H     -3.358033   -2.791945   -1.044579
H      1.896607    1.379806    0.186338
H      2.235689    0.596744    1.739545
H      1.637461   -1.547280    0.857601
H      1.317577   -0.868453   -0.774754
H     -0.111036    1.799469    0.385813
H     -0.163365    0.760655   -1.107869
H     -1.324423   -1.646594    1.569785
H     -0.568989   -2.160716   -0.005673
H     -2.253036    1.014125    1.092503
H     -2.066882   -0.973063   -1.268723
