36

C      4.084455   -1.613650   -0.561252
C      4.592599    0.483482    0.375372
C     -3.153220    2.854143    0.347447
C     -4.401774   -1.263260    0.255158
C      2.343328   -0.171107    0.304446
C      1.202987   -0.651367   -0.529586
C     -0.387389    0.891949    0.399211
C     -1.153619   -1.108803   -0.478551
C     -1.862293    1.037704    0.112561
C     -2.328544   -0.397504    0.189725
N      3.620334   -0.287977   -0.354913
N     -0.036295   -0.486610    0.203385
O     -2.497537    1.845850    1.050561
O     -3.498869   -0.592849   -0.540952
H      5.203330   -1.641317   -0.512699
H      3.814885   -1.922938   -1.600354
H      3.719126   -2.356337    0.146389
H      5.539903   -0.077350    0.448034
H      4.754788    1.437138   -0.199584
H      4.174296    0.738439    1.384891
H     -3.902946    2.423626   -0.351007
H     -3.684443    3.564878    1.013552
H     -2.407017    3.393234   -0.289260
H     -4.695800   -0.760898    1.176124
H     -4.050010   -2.276925    0.540149
H     -5.331441   -1.424049   -0.331832
H      2.409597   -0.838830    1.202852
H      2.227541    0.892899    0.602017
H      1.208282   -0.201948   -1.523190
H      1.347477   -1.763540   -0.663054
H     -0.243087    1.139557    1.468125
H      0.173664    1.584398   -0.259805
H     -1.184382   -2.188819   -0.321817
H     -1.178356   -0.856298   -1.550233
H     -2.050031    1.395075   -0.921840
H     -2.369539   -0.799993    1.210745
