58

C     -3.138321   -4.052704    2.532508
C      4.069683   -4.723064    0.195591
C     -5.192413   -1.157122   -1.694678
C      4.932328   -0.000277    1.566063
C     -0.049907    5.500055   -1.142911
C     -1.137149    4.676861   -1.814251
C     -0.954440   -0.721077    1.104852
C      0.822251   -1.381713   -1.006304
C     -1.676798   -1.807340    1.561567
C      1.549250   -2.517398   -0.810022
C      0.794230    4.425923   -0.493115
C     -2.636139   -0.341158   -0.522967
C      2.490344   -0.140188    0.161991
C     -1.409859    2.484094   -0.684241
C      1.446406    2.206949   -1.138168
C     -1.423121    0.034710    0.049868
C      1.285826   -0.189801   -0.523622
C     -0.649797    3.217550   -1.755359
C     -0.683356    1.174983   -0.460900
C      0.599107    1.078890   -0.674981
C     -2.869774   -2.188969    1.008907
C      2.773740   -2.510421   -0.121527
C     -3.345588   -1.419933   -0.063494
C      3.225623   -1.267445    0.364353
N      0.735372    3.371893   -1.487237
O     -3.621550   -3.286406    1.452665
O      3.471992   -3.574587    0.072535
O     -4.543173   -1.787280   -0.633054
O      4.425617   -1.214856    1.048670
H     -2.047402   -4.247338    2.492115
H     -3.325150   -3.509404    3.506066
H     -3.686077   -5.022214    2.597211
H      5.110689   -4.762442   -0.268004
H      4.211846   -4.994256    1.294374
H      3.578065   -5.627381   -0.269210
H     -6.296210   -1.137256   -1.454261
H     -4.917120   -0.108401   -1.871913
H     -5.130987   -1.769733   -2.634894
H      4.133401    0.475201    2.194382
H      5.133917    0.707152    0.752314
H      5.808359   -0.197876    2.219003
H      0.579563    5.970650   -1.913304
H     -0.465602    6.210832   -0.399910
H     -2.108872    4.759820   -1.297245
H     -1.251362    4.944615   -2.878144
H      0.001665   -0.445059    1.586311
H     -0.116943   -1.410255   -1.546691
H     -1.291946   -2.387022    2.393962
H      1.233829   -3.484132   -1.167466
H      1.836628    4.733720   -0.298017
H      0.309696    4.080954    0.467400
H     -2.986920    0.265255   -1.350584
H      2.897959    0.790621    0.565935
H     -2.435270    2.262051   -1.049718
H     -1.434080    3.049798    0.267477
H      2.196577    2.435876   -0.372068
H      1.997237    1.825242   -2.035476
H     -0.825875    2.700811   -2.720877
