34

C     -3.569260   -0.497232    1.279084
C      4.510492    0.588842    0.961903
C      4.279030   -0.687163    0.524286
C      3.510685    1.511938    1.001055
C      3.015797   -1.026697    0.120728
C      2.233604    1.138258    0.585440
C     -2.117141    2.499536   -0.965237
C     -2.619609    1.387775   -0.318069
C      0.100850    1.533020   -1.075535
C      1.948110   -0.110929    0.139992
C     -0.779924    2.562715   -1.334671
C     -0.384460    0.419307   -0.425993
C     -1.735988    0.363697   -0.062536
C      0.630225   -0.586304   -0.165135
C     -0.840259   -2.592473   -0.601288
C     -1.926621   -2.124651    0.347089
Cl    -0.203356    4.024021   -2.155550
N      0.409861   -1.871058   -0.300327
N     -2.388359   -0.782834    0.516015
O     -1.194751   -2.379685   -1.907218
O     -2.492803   -2.976053    1.064946
H     -3.492086    0.434442    1.871400
H     -4.496864   -0.493518    0.636741
H     -3.727038   -1.326432    1.997576
H      5.515165    0.850131    1.279033
H      5.073872   -1.431658    0.491112
H      3.659011    2.508467    1.334838
H      2.826534   -2.027776   -0.224424
H      1.475289    1.918576    0.709070
H     -2.797574    3.311030   -1.171431
H     -3.633824    1.252321    0.003617
H      1.128530    1.539289   -1.397130
H     -0.672754   -3.663104   -0.371156
H     -1.244383   -3.265795   -2.388224
