28

C     -2.539814   -0.982238    0.257605
C     -2.266173    1.431734   -0.168038
C      2.833930   -0.301004    0.772223
C      1.711947    0.172216   -1.345267
C      0.610119    1.035212   -0.751773
C     -0.020740   -0.313484    1.379172
C     -1.728125    0.042235   -0.450548
C      1.896255   -0.873689   -0.260441
C      0.509641   -1.110582    0.269599
C     -0.278390    0.046487   -0.094388
H     -1.937505   -1.820302    0.648200
H     -3.322437   -1.348242   -0.469790
H     -3.137969   -0.477036    1.067333
H     -2.203701    2.095460   -1.064450
H     -1.690998    1.950527    0.627762
H     -3.316634    1.412262    0.165911
H      2.523862    0.705626    1.117766
H      2.978199   -1.000557    1.613462
H      3.815649   -0.162412    0.270648
H      1.388692   -0.258731   -2.303809
H      2.643222    0.766569   -1.495476
H      1.013584    1.719866    0.001653
H      0.064679    1.540242   -1.571799
H      0.552971    0.480577    1.889900
H     -0.832611   -0.729492    1.971177
H     -1.796931   -0.086078   -1.567918
H      2.368852   -1.778570   -0.675209
H      0.160426   -2.156597    0.166494
