50

C      4.856081    1.777461    0.494733
C      6.083968    0.066388   -0.968995
C     -0.783885   -2.952567   -2.949999
C      0.091508   -1.176982    3.115078
C      0.036590   -2.794228    1.201663
C     -4.498500    1.050989    1.362563
C     -4.709119    2.820542   -0.266116
C     -3.779314   -0.009409    1.868018
C     -4.174726    3.482206   -1.361641
C      3.750712   -0.216005   -0.351628
C      4.828358    0.513458   -0.269928
C     -0.616165   -1.592460   -2.331252
C     -4.017830    1.746506    0.275311
C     -2.583579   -0.371855    1.287018
C     -2.973196    3.091151   -1.918208
C      2.508831    0.142991    0.288847
C     -2.128403    0.344594    0.198754
C     -2.818289    1.411993   -0.337056
C     -0.831901   -0.106202   -0.372182
C      0.146947   -0.348029    0.788184
C     -0.382431   -1.419914    1.685937
O     -0.159400   -0.653449   -3.000402
O     -2.461879    3.662603   -2.903873
O      2.416399    1.190198    0.961438
O     -0.967461   -1.371638   -1.013715
O     -2.352225    2.078206   -1.382980
O      1.370336   -0.639488    0.195302
O     -1.800394   -1.416565    1.725773
H      5.885226    2.233158    0.457786
H      4.126795    2.477426    0.034662
H      4.619657    1.664232    1.561078
H      6.925748    0.102887   -0.229982
H      6.318281    0.741057   -1.811846
H      5.998549   -0.994970   -1.280597
H     -0.859130   -2.907644   -4.037609
H     -1.725331   -3.380984   -2.509085
H      0.047707   -3.622739   -2.652993
H     -0.709118   -1.381684    3.856182
H      0.922107   -1.883658    3.378565
H      0.395320   -0.122257    3.276610
H      0.519897   -2.742379    0.189153
H      0.715927   -3.261572    1.944900
H     -0.825299   -3.482540    1.078626
H     -5.433103    1.335765    1.815187
H     -5.642644    3.105406    0.185563
H     -4.111370   -0.596202    2.727004
H     -4.716851    4.318266   -1.779936
H      3.766328   -1.149999   -0.928879
H     -0.422813    0.632060   -1.058861
H      0.153085    0.605875    1.370256
