18

C      1.411905   -1.354866   -0.098739
C      1.929244    0.991539    0.526605
C     -2.387757   -0.495856    0.039572
C      0.808626    0.011171    0.155113
F     -1.715180    2.230553    0.077298
O     -2.059663    1.016904   -2.153493
O      0.159626    0.467704   -0.964677
P     -1.452592    0.798333   -0.764098
H      2.247606   -1.486454    0.621533
H      1.829894   -1.397184   -1.126959
H      0.617399   -2.115295    0.047326
H      2.198443    0.750679    1.567496
H      2.762067    0.941749   -0.178171
H      1.462993    2.012234    0.563418
H     -2.042928   -1.514151   -0.162267
H     -3.450216   -0.449079   -0.340032
H     -2.482245   -0.330939    1.139405
H      0.162778   -0.077045    1.050668
