27

C      2.286299    0.769454   -0.149668
C      1.723906   -0.223331   -1.186171
C     -0.469014   -1.251223   -1.259824
C     -1.602894    1.000096    0.598251
C     -0.995016   -0.357964    0.942930
C      1.366726    0.566565    1.066764
C     -1.532915   -1.306398   -0.149378
C      0.436332   -0.437756    0.601396
N      0.344186   -0.165681   -0.849416
O     -1.225641    1.427986   -0.650130
O      0.886518    1.739902    1.558418
O     -2.766553   -0.915076   -0.593216
H      3.331157    0.569056    0.079548
H      2.078952    1.804825   -0.498470
H      1.976692    0.086421   -2.209035
H      2.143389   -1.218217   -0.905334
H     -1.014747   -1.021696   -2.196996
H      0.086464   -2.204960   -1.302052
H     -1.437546    1.757036    1.364860
H     -2.721522    0.846799    0.556994
H     -1.272906   -0.684860    1.940103
H      2.032525    0.121530    1.864499
H     -1.504559   -2.319369    0.305123
H      0.806577   -1.465659    0.702734
H     -1.359256    2.403147   -0.703896
H      1.603885    2.173746    2.096303
H     -3.201039   -1.694374   -1.024339
