45

C     -4.744479   -0.118140    1.521003
C     -4.187409    0.725589    0.445389
C      5.455504   -0.244560    0.397162
C      4.581042    0.603627    1.036324
C      3.771815   -0.909795   -1.097809
C     -0.944788    1.027094    1.472073
C      0.643834   -0.343224   -1.737658
C     -2.338224    1.661604   -0.944191
C     -2.031529   -1.964550   -0.523620
C     -2.920001    0.816899    0.136599
C      5.086316   -1.022585   -0.680325
C     -1.923969    0.020791    0.909770
C      2.871775   -0.063937   -0.472136
C      1.538473    0.226048   -0.687372
C     -1.120132   -0.820843   -0.091726
C      3.266500    0.703508    0.603514
C     -0.773977   -0.019437   -1.319290
C     -0.273108    1.686410    0.284746
C      1.123388    1.152126    0.236802
N      2.198202    1.417365    1.002084
N     -0.913248    1.387663   -0.969300
O     -1.389386   -2.787966   -1.436511
O      5.999181   -1.870740   -1.303345
H     -4.322050   -1.136056    1.558966
H     -5.839210   -0.243879    1.395556
H     -4.493431    0.363037    2.488077
H     -4.884676    1.319811   -0.137885
H      6.477625   -0.312982    0.744635
H      4.857515    1.221262    1.884722
H      3.436446   -1.503087   -1.942022
H     -1.553781    1.812752    1.974193
H     -0.224436    0.576609    2.174447
H      0.881482    0.005482   -2.744435
H      0.718021   -1.465541   -1.748488
H     -2.584077    2.717550   -0.857594
H     -2.749608    1.248003   -1.906917
H     -2.344036   -2.522413    0.393064
H     -2.940518   -1.482224   -0.959011
H     -2.342377   -0.660797    1.631217
H     -0.210068   -1.237290    0.370998
H     -1.438088   -0.259414   -2.165129
H     -0.187981    2.783075    0.396790
H      2.249395    2.083272    1.813282
H     -2.026396   -3.095162   -2.138714
H      6.544468   -1.474955   -2.084341
