25

C      2.057655    1.891688    0.092101
C     -1.255085    0.829379    0.990160
C     -2.104493   -0.134882   -1.125663
C      0.502229   -1.011186   -1.273088
C      0.737648   -1.426053    1.095679
C      1.305414    0.814970    0.130270
C     -0.268125   -1.327597    0.010219
C      0.312408    0.460143   -0.885144
C      1.457101   -0.115596    1.269511
C     -0.938491   -0.019684   -0.159779
O      2.121171    0.159685    2.283545
H      1.937323    2.560893   -0.742680
H      2.776295    2.117524    0.857902
H     -2.080078    1.521696    0.716339
H     -1.619134    0.261752    1.876242
H     -0.428961    1.469313    1.357138
H     -2.105884    0.795331   -1.741222
H     -2.029195   -1.043080   -1.756497
H     -3.067662   -0.167794   -0.577259
H      1.558131   -1.307511   -1.249933
H     -0.024517   -1.301274   -2.191213
H      0.371180   -1.820857    2.044095
H      1.537027   -2.137316    0.747601
H     -0.907094   -2.213365   -0.057528
H      0.155137    1.143823   -1.710798
