26

C      2.268745   -0.427616    0.931472
C     -2.226082   -0.916075    0.139245
C     -0.831602    0.798184    1.217900
C      1.389852    1.214704   -0.726131
C      0.236955    1.607589   -1.253143
C     -0.294371   -0.706668   -1.840319
C      1.516617   -0.221169   -0.340889
C     -0.864675    0.624990   -1.326782
C      0.184990   -0.899645   -0.391113
C     -0.964950   -0.051156    0.019840
H      2.649498   -1.491220    0.914434
H      3.193731    0.194259    0.873967
H      1.701023   -0.272876    1.846546
H     -2.542421   -1.331004   -0.812644
H     -2.063446   -1.702362    0.895156
H     -3.051229   -0.262585    0.544019
H     -0.122519    1.614610    1.177344
H     -1.840913    1.260268    1.421083
H     -0.648224    0.141821    2.101505
H      2.192884    1.913731   -0.587618
H      0.085544    2.614443   -1.624796
H     -1.032123   -1.425145   -2.180439
H      0.515586   -0.589095   -2.569710
H      2.139909   -0.684944   -1.163037
H     -1.791752    0.935059   -1.798154
H      0.198972   -1.938098   -0.057172
