45

C     -1.879965   -3.869317   -0.233501
C      3.960634    2.298934   -1.281637
C     -2.861053    4.254498   -0.199346
C     -0.830816   -0.531085   -1.477986
C     -1.758524   -1.705461   -1.292271
C      0.240136   -2.163264    1.524978
C      2.597050   -1.490758    1.259835
C     -2.180066    0.174744    1.671327
C      1.943986    0.648308   -0.298041
C     -0.725330    1.608718   -0.257596
C      1.237928   -1.221664    0.953160
C      0.902461   -0.158252    0.177839
C     -1.339893   -0.475535    0.900361
C     -1.161057   -1.953214    1.045392
C      3.597332   -0.690063    0.784628
C     -2.330842    1.621076    1.499865
C      3.273685    0.387294    0.000441
C     -1.556843    2.294461    0.492920
C     -0.500320    0.138103   -0.154901
N     -1.461116   -2.533239   -0.201140
O      4.944037   -0.960426    1.091167
O     -3.127312    2.266878    2.224070
O      4.305536    1.189355   -0.473002
O     -1.684345    3.654176    0.313092
H     -1.116577   -4.607887   -0.549620
H     -2.269591   -4.214860    0.764450
H     -2.739878   -3.974368   -0.930718
H      3.552096    1.963570   -2.265167
H      3.268703    2.987692   -0.772442
H      4.935095    2.802815   -1.536447
H     -3.741582    4.025108    0.469358
H     -3.075936    3.953605   -1.244417
H     -2.774311    5.359653   -0.179783
H     -1.381181    0.214401   -2.086664
H      0.078098   -0.802230   -2.051268
H     -1.790162   -2.237429   -2.264466
H     -2.794054   -1.277042   -1.152785
H      0.259999   -2.040661    2.647849
H      0.550666   -3.227740    1.366997
H      2.854858   -2.340293    1.878384
H     -2.751363   -0.345104    2.419732
H      1.709151    1.498455   -0.917719
H     -0.175895    2.140861   -0.997808
H     -1.886180   -2.295893    1.829079
H      5.682740   -0.366917    0.738658
