88

C      9.218419    1.039079   -1.868992
C      8.471043   -1.058717   -0.700757
C     -6.377460   -1.768926   -0.946804
C      3.448353    0.500691    4.214643
C     -3.465984   -1.395632    0.681274
C      0.517583   -1.524139    0.565214
C     -7.621970    0.753142   -1.718204
C     -8.079494    0.771582    0.670994
C      5.515872   -1.774934    0.066926
C     -0.681785    2.001365    0.453053
C      0.739087    1.640671    0.906410
C     -4.983872    1.536787    0.388376
C     -3.628220    1.509044    1.115839
C     -1.561111   -1.108039   -1.469391
C      2.795140   -0.719219   -1.770224
C     -2.998126   -0.759791   -1.653542
C      1.305474   -1.044571   -1.724043
C      6.887183    0.691724   -1.435289
C      8.053729    0.191711   -1.300029
C     -6.179628   -0.482880   -0.199102
C      3.479554    0.866250    2.757934
C     -1.396040    0.643148    0.334313
C     -4.963662    0.278298   -0.487049
C     -2.799572    0.922893    0.030790
C     -0.751666   -0.020585   -0.862429
C      1.411074    0.749986   -0.077536
C      3.384244   -0.661206   -0.398667
C      5.537774    0.401905   -1.137108
C      2.813190    0.452480    0.420349
C     -3.624818   -0.322621   -0.333781
C      0.639699   -0.462986   -0.481316
N     -7.327406    0.331004   -0.417030
N      4.854830   -0.626498   -0.516034
O      4.143129    1.866420    2.421474
O      4.693961    1.361230   -1.561412
O      2.808957    0.139553    1.809291
H      9.605744    0.505087   -2.743563
H      9.918422    1.131707   -1.021230
H      8.854450    2.032760   -2.123859
H      9.630042   -1.153313   -0.769163
H      8.080136   -1.945792   -1.247839
H      8.303180   -1.197692    0.365240
H     -6.081523   -2.649652   -0.303948
H     -5.938298   -1.792989   -1.941151
H     -7.481394   -1.949350   -1.104532
H      2.772835   -0.332935    4.412708
H      4.503875    0.265468    4.502605
H      3.161975    1.411578    4.763845
H     -2.770395   -1.117100    1.528394
H     -2.987007   -2.332015    0.264883
H     -4.418083   -1.644906    1.199076
H     -0.558448   -1.743836    0.841703
H      1.009002   -1.298740    1.520297
H      0.876197   -2.510632    0.143614
H     -8.743722    0.740876   -1.854988
H     -7.248916    0.011174   -2.468358
H     -7.311074    1.785128   -1.973402
H     -7.772961    0.183826    1.578586
H     -8.102207    1.849979    0.863700
H     -9.158025    0.471239    0.514176
H      5.972205   -2.452645   -0.661017
H      4.716458   -2.431343    0.595144
H      6.149176   -1.486787    0.924124
H     -1.176785    2.562163    1.248211
H     -0.638906    2.514151   -0.520702
H      1.291216    2.617489    0.900587
H      0.710214    1.260599    1.932378
H     -4.989080    2.454448   -0.198151
H     -5.747388    1.475163    1.174182
H     -3.329908    2.533729    1.409213
H     -3.673590    0.828766    1.979192
H     -1.146400   -1.264020   -2.511921
H     -1.400035   -2.093085   -0.979105
H      2.964356    0.236549   -2.290032
H      3.274374   -1.527210   -2.337536
H     -3.059926    0.092232   -2.375113
H     -3.511442   -1.598491   -2.114034
H      1.105738   -2.117083   -1.844209
H      0.860976   -0.515808   -2.593747
H      6.965876    1.740506   -1.992611
H     -6.204982   -0.750503    0.899363
H     -1.189433    0.139633    1.285941
H     -5.031953    0.656421   -1.552435
H     -2.861266    1.597850   -0.850248
H     -0.621382    0.785459   -1.638119
H      1.557576    1.354925   -1.019293
H      3.153448   -1.601621    0.173517
H      3.439580    1.350427    0.309982
