82

C      8.631880    0.889002   -0.500735
C      9.230267   -0.742800    1.314677
C     -6.767967   -0.654605    1.681126
C      0.520324    1.162687   -1.086128
C     -3.419820    0.056263   -1.326901
C     -7.150660    1.839692    0.367329
C     -7.123642   -0.038357   -1.016541
C      5.745417    1.794660   -1.284213
C      1.118762   -1.856868   -0.924036
C     -0.185607   -2.299125   -0.358431
C     -4.681128   -2.000542   -0.060259
C     -3.211302   -2.456063   -0.264689
C      3.014093    1.575618    0.795389
C     -1.307396    0.839353    1.398796
C      1.584120    1.325575    1.117850
C     -2.676339    0.995527    0.816785
C      6.925788   -0.286324    0.876552
C      2.990452   -0.340716   -0.836680
C      8.115738   -0.009635    0.523579
C     -5.685255    0.126711    0.915920
C      1.772532   -0.779283   -0.073240
C      3.524504    0.994102   -0.468592
C     -1.065947   -1.080543   -0.193051
C     -4.523056   -0.724048    0.738088
C     -2.389367   -1.418491    0.395453
C     -0.396875   -0.151944    0.792288
C      5.608804    0.074818    0.522578
C      0.862503    0.388713    0.158582
C     -3.269472   -0.168105    0.139562
N     -6.245855    0.818308   -0.196152
N      5.019787    0.930555   -0.382346
O      4.679557   -0.577988    1.243104
H      9.776751    0.849987   -0.522296
H      8.316374    0.543479   -1.490655
H      8.429623    1.941274   -0.304452
H     10.069432   -0.896462    0.644514
H      9.473674   -0.052846    2.126135
H      8.800026   -1.700174    1.596424
H     -6.933085   -1.656824    1.272280
H     -6.359163   -0.783493    2.731554
H     -7.652224   -0.021845    1.789399
H      1.022596    2.169689   -1.109156
H     -0.561968    1.408723   -1.036048
H      0.779820    0.671778   -2.027695
H     -3.081015   -0.785804   -1.964869
H     -2.757647    0.919975   -1.646226
H     -4.410929    0.336436   -1.678401
H     -6.763830    2.082816    1.375036
H     -7.139030    2.737064   -0.291033
H     -8.138549    1.396672    0.449934
H     -7.267581   -1.033102   -0.604459
H     -6.715687   -0.043468   -2.050149
H     -8.098932    0.476894   -1.096857
H      4.951751    2.433558   -1.841930
H      6.285258    2.525795   -0.666335
H      6.282065    1.299848   -2.082411
H      1.816848   -2.720400   -0.917832
H      1.038838   -1.535976   -1.977023
H     -0.083990   -2.886216    0.551589
H     -0.679594   -2.947304   -1.138105
H     -5.201393   -2.804037    0.450719
H     -5.050832   -1.755062   -1.074955
H     -2.992018   -2.695523   -1.299486
H     -3.045144   -3.419543    0.304213
H      3.626217    1.346320    1.703395
H      3.112139    2.709457    0.677072
H     -0.836427    1.836293    1.384107
H     -1.462597    0.623493    2.497788
H      1.492322    0.844461    2.124430
H      1.033405    2.303928    1.242421
H     -3.395279    1.344816    1.604870
H     -2.663681    1.856587    0.080384
H      6.920756   -1.074119    1.760274
H      2.716489   -0.345333   -1.946014
H      3.802104   -1.125841   -0.806544
H     -5.391065    0.933725    1.678932
H      2.086976   -1.176709    0.899879
H      3.337511    1.757700   -1.276921
H     -1.195574   -0.618799   -1.181735
H     -4.171333   -1.120856    1.780542
H     -2.350520   -1.535431    1.493602
H     -0.016729   -0.841746    1.607497
