36

C     -4.543620    0.701639    0.614970
C     -3.866667   -0.285614   -0.070556
C      3.473489   -0.025554   -1.389925
C     -2.502305    1.399885    1.600304
C      2.474567    0.200429    1.160601
C      1.383198   -1.011500   -2.240277
C      2.192335   -0.443758   -1.121748
C     -3.864341    1.554731    1.458416
C     -2.491170   -0.439791    0.074565
C      1.708522   -0.323603    0.158970
C      4.274256    0.513626   -0.379400
C      3.772319    0.621543    0.878288
C     -1.798755    0.407413    0.915728
C     -1.775870   -1.519681   -0.680288
C      0.307533   -0.773243    0.484967
C     -0.358061   -1.038829   -0.847386
O     -4.552619    2.545503    2.144625
O      5.557717    0.921763   -0.693984
O      4.497960    1.147737    1.953489
O     -2.318961   -1.599872   -1.982351
O      0.405090   -1.843195   -1.668390
O     -0.425507    0.291344    1.092052
H     -5.629800    0.794060    0.476013
H     -4.411397   -0.956051   -0.735586
H      3.858586   -0.120975   -2.408331
H     -1.915234    2.041147    2.249482
H      2.088023    0.291279    2.162115
H      1.985285   -1.522072   -2.994532
H      0.802054   -0.157563   -2.693415
H     -1.844713   -2.482882   -0.149936
H      0.323408   -1.673242    1.129626
H     -0.432465   -0.030528   -1.351839
H     -4.913669    2.279788    3.068836
H      6.146003    1.305171   -0.005479
H      5.437698    1.473868    1.839069
H     -3.042892   -2.242971   -2.048696
