45

C     -1.622722    3.793098   -0.879703
C      3.717029   -2.753496   -1.335636
C     -2.293732   -4.252353    1.765404
C     -1.198032    0.511162   -1.553643
C     -2.303668    1.513577   -1.251765
C      0.298692    2.531232    0.639060
C      2.561222    1.685951    0.271710
C     -1.934993    0.060109    1.808435
C      1.733679   -0.762442   -0.571621
C     -0.879124   -1.568211   -0.197613
C      1.190160    1.422868    0.218696
C      0.799801    0.197698   -0.204031
C     -1.290643    0.639272    0.833747
C     -1.120206    2.113795    0.774996
C      3.490126    0.734713   -0.092595
C     -2.102395   -1.405842    1.848797
C      3.099510   -0.515798   -0.524255
C     -1.529987   -2.178742    0.772501
C     -0.674008   -0.119145   -0.274963
N     -1.951033    2.531261   -0.335540
O      4.862767    0.998225   -0.039468
O     -2.714884   -1.960791    2.776346
O      4.043248   -1.472212   -0.890840
O     -1.647198   -3.570612    0.728843
H     -2.578432    4.265621   -1.253654
H     -0.908634    3.767222   -1.726389
H     -1.254776    4.462936   -0.088943
H      3.447470   -3.364708   -0.434085
H      2.833646   -2.777439   -2.007123
H      4.584555   -3.252960   -1.804576
H     -1.789167   -4.075679    2.728233
H     -3.376194   -3.950693    1.814405
H     -2.246119   -5.367839    1.617756
H     -1.605462   -0.224085   -2.255875
H     -0.406508    1.082019   -2.080533
H     -3.130133    0.900796   -0.786406
H     -2.654424    1.889446   -2.213370
H      0.462355    3.361923   -0.094936
H      0.650429    2.923348    1.616413
H      2.920895    2.660799    0.606585
H     -2.351339    0.651708    2.594518
H      1.443565   -1.761460   -0.917154
H     -0.488182   -2.185529   -0.980007
H     -1.604954    2.532740    1.688429
H      5.517797    0.288518   -0.310148
