36

C     -1.990547    1.390681    1.681421
C     -3.902571    1.013224   -0.625499
C      3.351301   -3.018494   -0.009967
C      3.916893    1.636792   -0.579696
C     -1.577284   -1.652295   -0.136462
C     -2.362063   -0.774592   -1.123814
C      0.901138   -1.612105    0.025138
C     -1.650102    1.124664    0.233453
C     -0.284575   -0.921327    0.043328
C      2.088925   -0.935048    0.193148
C     -0.342409    0.437621    0.224444
C      0.838630    1.113896    0.392391
C      2.053419    0.426154    0.376315
N     -2.616644    0.436570   -0.487669
O      0.852188    2.477604    0.580718
O      3.288534   -1.634801    0.174495
O      3.246749    1.123392    0.547632
H     -1.935463    2.477696    1.882113
H     -1.287821    0.898173    2.386520
H     -3.015393    1.048500    1.935812
H     -4.334002    1.435121    0.304506
H     -4.618500    0.209090   -0.951139
H     -3.869667    1.780434   -1.425834
H      2.648549   -3.352248   -0.828476
H      3.038033   -3.498471    0.941417
H      4.383250   -3.346058   -0.251133
H      4.837545    2.182405   -0.236321
H      3.276175    2.360932   -1.103457
H      4.248681    0.821023   -1.236843
H     -2.140514   -1.588150    0.813043
H     -1.440832   -2.663018   -0.521718
H     -1.702361   -0.592310   -2.021927
H     -3.280992   -1.284597   -1.410647
H      0.859390   -2.669406   -0.121249
H     -1.496692    2.125861   -0.275367
H      0.019032    3.023086    0.611322
