43

C      3.580739    1.420650   -0.356251
C      4.160215   -0.731398    0.772096
C     -0.493667   -0.768484   -1.939263
C     -1.925944    2.108155    1.286408
C      1.557584   -1.400917    0.291141
C     -3.109963   -0.704490    0.403186
C      0.247465   -2.019214    0.027902
C     -3.019306    0.633485   -0.319165
C      0.676844    0.840527    0.312070
C      3.165057    0.417750    0.692971
C      1.802975   -0.122620    0.427035
C     -0.671179    0.206219    0.362902
C     -2.135230   -1.648673   -0.276500
C     -0.783558   -1.035128   -0.484852
C     -1.704560    1.243587    0.045419
O     -2.716962   -2.002171   -1.503189
O     -1.293909    2.082855   -0.984478
H      2.708354    2.050693   -0.629734
H      4.375060    2.090527    0.038414
H      3.950651    0.889534   -1.278010
H      4.176838   -1.256705   -0.199342
H      5.179108   -0.356269    0.961108
H      3.880308   -1.391135    1.607894
H     -0.144768    0.278716   -2.111017
H      0.302123   -1.428727   -2.342918
H     -1.388743   -0.949647   -2.590685
H     -1.958212    3.182496    1.007364
H     -2.896956    1.864328    1.764291
H     -1.116044    1.969991    2.024447
H      2.409444   -2.089446    0.381045
H     -4.127861   -1.094380    0.321713
H     -2.835490   -0.558627    1.454783
H     -0.155469   -2.533015    0.946917
H      0.366438   -2.831254   -0.725561
H     -3.141323    0.501208   -1.416137
H     -3.838145    1.311018    0.023752
H      0.758704    1.443490   -0.629327
H      0.758503    1.544624    1.167534
H      3.201974    0.927117    1.688393
H     -0.843112   -0.123199    1.421489
H     -2.084866   -2.554558    0.388100
H     -3.584349   -2.452025   -1.317409
H     -1.288771    3.045110   -0.714535
