45

C      5.787987    0.602440   -0.587219
C     -3.774895    3.286408   -0.645633
C      0.257477    3.298022    1.001181
C      2.796847   -2.003038    0.536414
C      3.780384   -1.135484    0.162723
C     -3.649493   -1.612276    0.069745
C     -3.024561   -2.995009    0.000474
C      0.433402   -2.480991    1.070056
C     -2.902775    0.706542   -0.211172
C      1.488942   -1.565376    0.575738
C     -2.543409   -0.603508    0.003985
C     -0.808170   -2.315860    0.294310
C      3.468017    0.158153   -0.172663
C     -1.972650    1.700918   -0.303714
C     -1.210537   -0.910402    0.123189
C      1.163426   -0.256636    0.237092
C     -0.241977    0.112529    0.024244
C      2.143447    0.622754   -0.143490
C     -0.607767    1.392419   -0.177207
N     -1.917030   -3.035911    0.911598
O      1.994379    1.896225   -0.515750
O      4.450658    1.059152   -0.554283
O     -2.412348    3.008273   -0.523745
O      0.183818    2.492434   -0.262974
H      5.845721   -0.273268   -1.262740
H      6.492775    1.393616   -0.881741
H      6.115100    0.253821    0.435082
H     -4.355772    3.008588    0.241647
H     -3.872204    4.387777   -0.833010
H     -4.155489    2.761356   -1.557511
H      0.971917    4.110894    0.780177
H     -0.758128    3.706156    1.158471
H      0.629660    2.654707    1.792515
H      2.999229   -3.029565    0.806040
H      4.825272   -1.448130    0.123698
H     -4.327564   -1.490027   -0.781170
H     -4.182819   -1.494260    1.021079
H     -3.786544   -3.755658    0.271618
H     -2.738502   -3.170757   -1.059238
H      0.778111   -3.547339    1.020320
H      0.194346   -2.279760    2.142763
H     -3.970687    0.943410   -0.310186
H     -0.654010   -2.706550   -0.762681
H     -1.661484   -3.966152    1.252067
H      2.727901    2.519360   -0.809081
