26

C      2.969334    1.055416    0.421642
C     -2.248821   -0.899088    0.781290
C      1.762906   -1.267425    0.225133
C      0.266644   -1.510049    0.387575
C     -2.173798    1.146855   -0.550266
C      1.803055    0.204150    0.072464
C     -1.708562   -0.247383   -0.501771
C     -0.269548   -0.504367   -0.639897
C      0.628694    0.624840   -0.425037
C      0.141398    1.960961   -0.764197
O      0.969999    2.901937   -0.963455
O     -1.211218    2.116054   -0.847358
H      3.180527    0.881759    1.512754
H      2.766940    2.122379    0.311858
H      3.874135    0.764145   -0.138222
H     -1.896861   -0.335554    1.643173
H     -3.372702   -0.831493    0.695525
H     -1.938955   -1.947662    0.788317
H      2.035325   -1.759495   -0.745506
H      2.336767   -1.640747    1.068593
H      0.059694   -2.546531    0.093036
H     -0.077556   -1.264412    1.405648
H     -2.647780    1.461066    0.426806
H     -3.006349    1.296240   -1.300482
H     -2.237893   -0.822598   -1.320580
H     -0.005377   -0.958998   -1.637044
