45

C      5.872372   -0.563795    0.164569
C     -3.371081   -2.402823   -2.933644
C      0.160293   -3.393541   -0.736674
C      2.644536    1.593620    1.569350
C      3.711515    0.885822    1.108490
C     -3.556835    1.737845   -0.048385
C     -3.247477    2.614832    1.118772
C      0.248085    2.075897    1.801464
C     -2.757845   -0.267363   -1.199123
C      1.327660    1.262587    1.204635
C     -2.481531    0.774831   -0.359278
C     -1.000525    2.029436    1.055156
C      3.493992   -0.163821    0.273920
C     -1.799372   -1.189447   -1.540966
C     -1.190076    0.887859    0.145708
C      1.136959    0.185428    0.352278
C     -0.209097   -0.051555   -0.210916
C      2.192290   -0.536188   -0.125878
C     -0.488794   -1.084329   -1.029522
N     -2.177448    2.071741    1.935196
O      2.110365   -1.578312   -0.970200
O      4.560625   -0.907564   -0.213936
O     -2.084551   -2.248570   -2.394911
O      0.351014   -2.092954   -1.432222
H      6.161807    0.439523   -0.202892
H      5.957461   -0.516278    1.280494
H      6.611981   -1.313142   -0.160506
H     -4.142590   -2.543413   -2.138809
H     -3.395167   -3.290359   -3.594924
H     -3.649981   -1.500398   -3.537214
H      0.974407   -4.016925   -1.136121
H      0.363233   -3.173893    0.317670
H     -0.851391   -3.756986   -0.954416
H      2.790318    2.434900    2.233212
H      4.747096    1.140685    1.393988
H     -3.776325    2.395472   -0.940595
H     -4.518542    1.222443    0.160220
H     -2.864119    3.604732    0.740735
H     -4.144509    2.868980    1.731747
H      0.102303    1.629772    2.839801
H      0.569953    3.140764    1.905323
H     -3.776877   -0.345585   -1.596375
H     -1.076795    2.950159    0.405898
H     -2.466865    1.070677    2.148072
H      2.939527   -2.080765   -1.314688
