77

C     -4.913088   -1.213651    2.850152
C      4.049027   -2.008355    2.315917
C     -5.836932   -1.109227    0.563736
C      5.367910   -0.015088    1.861485
C     -5.205417   -1.880535   -0.554985
C      5.232266    1.370757    1.308093
C     -2.547254    0.340472    1.779819
C      2.259620   -1.382554    0.148236
C     -4.978498   -0.055160   -3.459524
C      6.988627    0.668229   -0.934313
C     -2.150424    1.475915    0.858741
C      1.542674   -0.813127   -1.040414
C     -5.608896    1.125472   -3.810844
C      7.442781    0.254074   -2.161766
C     -5.302129    1.196599   -1.701273
C      5.339292    0.645651   -2.392657
C      0.097968    0.726811    0.325094
C     -1.867816   -0.446521   -0.713272
C      2.294028    1.485283   -0.396482
C     -1.253430    1.816952   -1.377286
C     -4.822664   -0.503819    1.510750
C      4.446709   -1.025806    1.230075
C     -4.780094   -0.010918   -2.100353
C      5.642156    0.921974   -1.069645
C     -3.414701   -0.667421    1.013374
C      3.172668   -0.341383    0.771459
C     -4.141247   -1.044214   -1.258047
C      4.646457    1.391856   -0.058956
C     -1.250547    0.871863   -0.229277
C      1.116119    0.586487   -0.737797
N     -3.240902   -0.418742   -0.363708
N      3.442445    0.644919   -0.236701
O     -5.784428    1.845535   -2.733679
O      6.439170    0.257803   -2.981597
S      0.317896    1.344278   -2.205403
H     -5.105016   -2.296604    2.605279
H     -5.700826   -0.788322    3.494053
H     -3.920802   -1.183402    3.369514
H      3.210958   -1.571564    2.923406
H      3.793459   -2.998619    1.915817
H      4.896354   -2.111269    3.017536
H     -6.504198   -1.799694    1.123931
H     -6.507250   -0.338926    0.112591
H      6.403047   -0.359910    1.723374
H      5.201395    0.045242    2.974997
H     -6.011329   -2.041555   -1.326528
H     -4.748584   -2.827762   -0.240615
H      6.271414    1.804245    1.212708
H      4.644968    2.033084    1.990234
H     -1.602468   -0.151116    2.101441
H     -3.047369    0.700801    2.687835
H      1.566822   -1.831832    0.868705
H      2.897908   -2.232353   -0.232969
H     -4.693072   -0.862148   -4.118564
H      7.545017    0.790502   -0.009872
H     -3.106560    1.854008    0.398242
H     -1.610383    2.232372    1.419913
H      0.676737   -1.409713   -1.318981
H      2.222350   -0.768177   -1.927276
H     -5.903695    1.390051   -4.838769
H      8.465151   -0.018933   -2.369726
H     -5.332414    1.601297   -0.673141
H      4.351446    0.750349   -2.808355
H      0.133514   -0.179587    0.969749
H      0.295766    1.585149    1.024126
H     -1.376142   -1.247863   -0.087167
H     -1.642829   -0.636547   -1.768530
H      2.506707    2.227645   -1.170583
H      2.105584    2.063144    0.548666
H     -2.057873    1.532869   -2.113506
H     -1.275615    2.875063   -1.120823
H     -5.090501    0.566774    1.647802
H      4.905632   -1.515435    0.360502
H     -3.053295   -1.680868    1.298178
H      2.616362    0.071824    1.641248
H     -3.563837   -1.776509   -1.884344
H      4.404116    2.469878   -0.321515
