43

C      3.796004    0.348493    0.291366
C      3.332357   -1.376403   -1.374768
C     -0.179160    0.894704    1.924477
C     -1.450870    0.314803   -2.595091
C      1.067679   -1.565140    1.259350
C     -3.253670   -0.078298    0.196534
C     -0.385586   -1.504649    1.624628
C     -2.790864    1.048984   -0.702676
C      0.892645    0.192615   -0.483921
C      3.085164   -0.967123    0.056095
C      1.620082   -0.817822    0.334018
C     -0.586561   -0.103700   -0.341261
C     -2.369232   -0.042253    1.428085
C     -0.917674   -0.159254    1.103532
C     -1.394923    0.833560   -1.161444
O     -2.670355    1.160778    2.089660
O     -0.759485    2.093870   -1.245778
H      3.393459    0.812991    1.211607
H      4.876745    0.135354    0.366376
H      3.640973    0.996077   -0.596496
H      4.009118   -2.279317   -1.404361
H      3.890555   -0.596373   -1.948713
H      2.405321   -1.583308   -1.913271
H     -0.752467    1.022741    2.884696
H      0.825709    0.540159    2.235170
H     -0.147243    1.869417    1.422443
H     -0.655198    0.744214   -3.226153
H     -1.435026   -0.793341   -2.551670
H     -2.438737    0.585342   -3.063386
H      1.669146   -2.282525    1.814937
H     -4.290839    0.153610    0.517560
H     -3.172612   -1.006735   -0.370814
H     -0.513552   -1.600668    2.708062
H     -0.917878   -2.288406    1.061653
H     -2.889745    2.042628   -0.200621
H     -3.512457    1.081444   -1.555778
H      1.181172    0.094776   -1.563538
H      1.147989    1.227847   -0.187986
H      3.559503   -1.709734    0.733082
H     -0.728310   -1.136551   -0.769877
H     -2.671977   -0.849356    2.153220
H     -2.165224    1.923818    1.718297
H     -1.343977    2.622730   -1.877247
