39

C     -3.327116   -0.410619    0.165769
C     -1.528096   -1.991324   -0.100266
C      2.504102   -2.952026    0.472446
C      1.096595    3.313855   -0.940726
C      2.606669   -0.742425   -0.767377
C     -1.056871    2.326651   -0.537734
C      1.518871    0.216400   -1.266793
C     -1.538797    1.729659    0.737694
C      0.968774   -1.107306    1.068335
C     -1.809563   -0.540053   -0.073356
C      1.952889   -1.554297    0.308634
C      0.431030    2.250790   -0.522018
C     -1.092931    0.285229    0.918546
C      1.120049    1.035294   -0.056604
C      0.371098    0.245868    0.974289
H     -3.449366   -0.255332    1.252555
H     -3.856520   -1.332459   -0.108147
H     -3.719048    0.490922   -0.344313
H     -1.532444   -2.476293    0.903275
H     -0.651950   -2.282472   -0.713276
H     -2.398481   -2.480442   -0.638111
H      2.893718   -3.356836   -0.459044
H      1.762630   -3.590126    0.984522
H      3.368887   -2.852617    1.189574
H      2.175499    3.277009   -0.936377
H      0.607665    4.200119   -1.280172
H      2.967425   -1.376749   -1.588077
H      3.391560   -0.112167   -0.317918
H     -1.400070    1.845808   -1.451010
H     -1.414507    3.378401   -0.568107
H      0.682297   -0.388810   -1.659852
H      1.902893    0.879681   -2.038969
H     -2.639672    1.829410    0.866689
H     -1.082945    2.296139    1.575910
H      0.575935   -1.783186    1.810946
H     -1.670535   -0.143119   -1.103338
H     -1.499113    0.004997    1.925413
H      2.109778    1.382774    0.356501
H      0.659662    0.739654    1.960486
