52

C      4.889509    1.494939    1.107309
C     -3.427146    1.234352   -0.981791
C     -3.453336    1.067425    1.433678
C     -0.566367   -0.826135   -1.744344
C     -2.629347   -1.906346    0.864926
C      3.057467   -1.482683    0.431500
C      1.612279   -1.825303    0.153802
C     -0.836688    1.649986   -0.446797
C     -3.471265   -0.953992    0.085642
C     -1.265268   -2.058656    0.229637
C      0.628827    1.781002   -0.446967
C      2.384357    1.035917    1.014722
C      2.441743    0.233312   -1.173850
C      3.649341    0.831842    0.679710
C      3.568683   -0.304640   -0.305085
C     -1.384438    0.443706    0.264100
C      0.763722   -0.616008    0.361519
C     -2.852496    0.410686    0.177397
C     -0.648523   -0.777033   -0.212526
C      1.444603    0.615891   -0.068387
H      4.759606    2.519344    1.468327
H      5.410789    0.917577    1.892136
H      5.620289    1.563906    0.248571
H     -3.125418    2.289847   -0.927222
H     -3.297179    0.756208   -1.949669
H     -4.540996    1.237593   -0.786979
H     -2.990655    2.039575    1.624268
H     -3.295778    0.379671    2.275459
H     -4.545284    1.118401    1.242536
H     -0.043712   -1.740124   -2.037918
H     -0.173556    0.086953   -2.179061
H     -1.612833   -0.939299   -2.108455
H     -2.521317   -1.535206    1.882269
H     -3.081365   -2.924509    0.891442
H      3.656166   -2.413866    0.212286
H      3.141902   -1.366963    1.546743
H      1.486605   -2.316946   -0.831403
H      1.370019   -2.638876    0.902930
H     -1.347754    2.537226    0.038445
H     -1.269837    1.659486   -1.491689
H     -4.487493   -0.944171    0.581996
H     -3.684226   -1.279149   -0.954911
H     -1.411612   -2.792239   -0.617916
H     -0.657125   -2.628006    0.974638
H      0.941238    2.093709   -1.490350
H      0.889508    2.702594    0.158922
H      2.094948    1.468793    1.988143
H      2.084061   -0.610410   -1.775771
H      2.724386    1.124361   -1.732421
H      4.502579   -0.447330   -0.855417
H     -1.093186    0.571821    1.349745
H      0.591571   -0.538229    1.477603
