39

C      2.494376    1.915626    1.463209
C     -2.003252    1.170167   -2.011864
C     -1.990627    1.623625    0.348082
C      1.786032   -1.632828    1.154148
C     -1.777589   -1.846954    0.157407
C      2.619631    0.424954   -0.482077
C      1.952618   -0.577328   -1.397213
C     -2.386879   -0.670968   -0.484660
C     -0.705189   -1.569386    1.158397
C      1.932753    0.932209    0.524147
C      0.520165   -0.837867   -0.913098
C      0.531989    0.473440    0.694626
C     -0.124356    0.464196   -0.665663
C     -1.579499    0.540875   -0.666983
C      0.556975   -1.060421    0.571300
H      3.565541    1.721173    1.705663
H      1.963857    1.923494    2.436297
H      2.446493    2.962910    1.079726
H     -1.872108    0.442421   -2.815982
H     -3.048795    1.517943   -1.897743
H     -1.367456    2.074414   -2.110238
H     -2.058104    1.238229    1.360328
H     -3.026630    1.938806    0.041424
H     -1.333181    2.479261    0.192087
H      2.518573   -2.040025    0.463456
H      1.508321   -2.460943    1.863110
H      2.297274   -0.870270    1.807545
H     -1.440634   -2.609639   -0.607980
H     -2.583856   -2.414118    0.715783
H      3.644699    0.662376   -0.724902
H      1.842698   -0.137191   -2.414130
H      2.531342   -1.492700   -1.501493
H     -3.315191   -0.382533    0.097510
H     -2.820517   -1.034884   -1.467139
H     -1.119114   -0.895041    1.926605
H     -0.513679   -2.544362    1.697663
H      0.049336   -1.577924   -1.537519
H     -0.034319    0.865629    1.525821
H      0.338305    1.283636   -1.285650
