52

C      5.086563    1.106615   -0.186271
C     -3.328252    0.268423    1.509331
C     -3.294626    2.117886   -0.043709
C     -1.034577   -1.825920    0.145323
C     -2.654164   -0.881218   -1.895079
C      2.984871   -1.579341   -0.540047
C      1.484128   -1.706515   -0.603478
C     -0.798033    0.799076    1.577618
C     -3.489944   -0.134545   -0.937981
C     -1.197674   -0.534895   -1.902732
C      0.607521    1.330196    1.387663
C      2.587086    1.262309    0.028605
C      2.243582   -0.458979    1.550898
C      3.728968    0.609069    0.135088
C      3.446685   -0.764490    0.648376
C     -1.357116    0.668795    0.153890
C      0.810971   -0.329915   -0.502174
C     -2.823017    0.656673    0.108506
C     -0.655555   -0.510395   -0.462661
C      1.451744    0.425093    0.577060
H      5.047030    2.125412   -0.628752
H      5.697224    1.049133    0.730297
H      5.537705    0.385252   -0.919322
H     -2.692545   -0.460650    2.000765
H     -3.409735    1.150397    2.168877
H     -4.355461   -0.132158    1.370697
H     -3.336923    2.627277    0.926049
H     -2.532639    2.629038   -0.689362
H     -4.254754    2.157831   -0.570478
H     -0.604044   -2.033355    1.121137
H     -0.700026   -2.620639   -0.585632
H     -2.129380   -1.963887    0.221000
H     -3.005566   -0.765654   -2.964975
H     -2.709514   -1.999672   -1.733749
H      3.422265   -2.572546   -0.447910
H      3.331734   -1.117548   -1.501750
H      1.233144   -2.163656   -1.578512
H      1.171728   -2.387239    0.184447
H     -1.395228    1.467779    2.198129
H     -0.670649   -0.216934    2.043929
H     -4.226178    0.479108   -1.542157
H     -4.170515   -0.885349   -0.431382
H     -1.080461    0.515193   -2.272189
H     -0.662550   -1.256194   -2.520072
H      0.502809    2.304571    0.851913
H      1.096381    1.508567    2.368031
H      2.462342    2.268346   -0.394381
H      2.559770    0.205283    2.366730
H      1.703206   -1.346199    1.853713
H      4.276904   -1.204991    1.194503
H     -0.978603    1.568404   -0.419190
H      1.073366    0.167163   -1.484157
