33

C      1.938117   -0.937790    0.947053
C     -4.673976   -0.627626    0.058949
C     -3.697973   -0.856974   -0.887390
C      3.219930   -1.230522    1.386113
C      2.678545    1.121129    0.059503
C     -3.024018    0.204085    1.508727
C      1.633484    0.229478    0.280478
C     -4.354667   -0.088828    1.284431
C     -2.368468   -0.563342   -0.660871
C      4.243072   -0.320949    1.151017
C      3.963132    0.856278    0.484908
C     -2.032532   -0.022847    0.562521
C     -1.297096   -0.782027   -1.617194
C      0.027155   -0.115052   -1.510939
C      0.247615    0.545848   -0.194145
O     -5.312847    0.157648    2.266777
O      5.538346   -0.606993    1.589694
O      5.000401    1.751059    0.260577
O     -1.522691   -1.573878   -2.567539
O      0.083323    0.820121   -2.568067
O     -0.709023    0.267630    0.783499
H      1.112229   -1.630099    1.115366
H     -5.705752   -0.862475   -0.134276
H     -3.943091   -1.281968   -1.856608
H      3.389330   -2.167414    1.904193
H      2.485929    2.049616   -0.459502
H     -2.736697    0.624834    2.451229
H      0.810141   -0.886434   -1.731533
H      0.221889    1.661319   -0.360672
H     -5.809443    1.047403    2.334566
H      6.266481    0.070265    1.407048
H      4.833348    2.620123   -0.222219
H     -0.504194    0.528379   -3.291575
