25

C     -0.324773   -0.860837   -0.341832
C     -1.167813    1.274443    0.833734
C      1.827368    0.459110   -0.312846
C     -3.157371    1.272090   -0.056296
C      1.055984   -0.749258    0.154923
C     -1.266543    0.196155    0.015850
N      1.804502   -1.975511   -0.114351
N     -2.346189    1.927868    0.776030
N     -2.520188    0.209348   -0.533953
O      3.061583    0.530431    0.374421
Cl     0.691541    0.000000    0.000000
Cl     0.691285    0.000000    0.000000
H     -0.270496   -0.951869   -1.466209
H     -0.756967   -1.855893   -0.031921
H     -0.334507    1.565039    1.427342
H      1.319946    1.402581   -0.177803
H      2.130947    0.269927   -1.373828
H     -4.169120    1.610303   -0.265400
H      1.027080   -0.674325    1.268103
H      1.120865   -2.756042   -0.291574
H      2.462867   -1.845519   -0.913606
H     -2.943013   -0.471664   -1.210802
H      3.445838    1.423623    0.197386
H     -0.691541    0.000000    0.000000
H     -0.691285    0.000000    0.000000
