46

C      5.252707   -0.912615   -0.959494
C     -6.273564   -0.335408    0.710518
C     -5.625310   -0.030313    1.888769
C     -5.535854   -0.269593   -0.452653
C     -4.291039    0.326690    1.902624
C     -4.186355    0.092330   -0.431115
C      3.670774    0.452421    0.854770
C      3.171728    1.146535   -0.394525
C      1.982557   -1.321535    0.744565
C      1.677132   -0.374642   -1.565857
C     -1.922901    2.078076    0.015260
C     -3.547844    0.395604    0.753998
C      3.422589   -1.004077    0.522590
C      3.096994    0.053850   -1.430577
C      1.063790   -0.952104   -0.348830
C     -2.131171    0.772308    0.749573
C     -1.234982   -0.245640    0.215741
N      3.836594   -1.080153   -0.858730
O     -2.322247    2.041268   -1.298878
O     -1.678429   -1.338957   -0.194887
O      0.122896   -0.005380    0.160086
Cl     0.684730    0.000000    0.000000
H      5.664784   -1.852077   -1.427877
H      5.717315   -0.873340    0.049756
H      5.531136   -0.041253   -1.583984
H     -7.319854   -0.616527    0.689248
H     -6.216735   -0.085486    2.800025
H     -6.049159   -0.510290   -1.377887
H     -3.813469    0.559930    2.845948
H     -3.660526    0.127094   -1.367369
H      3.113654    0.771791    1.759362
H      4.751462    0.670309    0.969560
H      3.809184    1.995381   -0.694208
H      2.148880    1.566431   -0.164396
H      1.692561   -0.848992    1.729113
H      1.917340   -2.425938    0.953630
H      1.634236   -1.105410   -2.426205
H      1.097866    0.515558   -1.950296
H     -2.381768    2.874737    0.606159
H     -0.814131    2.264193    0.028388
H      4.083882   -1.603845    1.172175
H      3.485607    0.346478   -2.410385
H      0.449355   -1.848742   -0.656472
H     -1.826125    0.968545    1.809939
H     -1.563559    2.220511   -1.937174
H     -0.684730    0.000000    0.000000
