79

C      4.924739   -4.079845   -0.585488
C     -4.052869    4.157610   -0.025323
C      6.263720    4.483866    0.491560
C     -6.256694   -3.762362    1.101411
C     -0.164055    3.571749   -1.045849
C     -1.020078    2.216554    0.705335
C      5.457053    0.540069   -0.113505
C      1.068606    3.617663   -0.332790
C      0.240679    2.305518    1.360140
C      5.739905    1.846263    0.077765
C      2.054314   -4.695684    0.307150
C     -6.029764    1.237523   -0.229324
C      2.784375   -4.708756   -1.038855
C     -5.506515    2.367877    0.622524
C     -2.451063    2.599735   -1.338184
C      4.253969   -1.492867   -0.253727
C      3.253960    0.684038    0.815189
C     -0.172175   -3.751499    0.344322
C     -5.433072   -1.063985    0.247266
C      0.902528   -1.232050   -0.466943
C     -1.220719    2.841449   -0.504160
C      4.217595   -0.098857    0.237206
C      1.149457   -3.531275    0.149972
C     -5.013601    0.148741   -0.128783
C      1.282981    2.995647    0.838135
C      1.741755   -2.294011   -0.249794
C      3.205611   -2.467732   -0.226362
C     -3.577636    1.896350   -0.784088
C      4.717412    2.606200    0.660215
C      3.520866    2.011973    1.000227
C     -1.002365   -2.651282    0.127189
C     -0.461555   -1.437427   -0.266763
C     -4.553533   -2.094800    0.406518
C     -3.655569    0.512014   -0.404109
C     -3.227271   -1.796070    0.156807
C     -2.766541   -0.520776   -0.243396
N      3.638506   -3.580968   -1.082888
N     -4.216624    2.747290    0.202002
O      5.024551    3.955021    0.853334
O     -4.981805   -3.328694    0.788728
O      2.580321    2.996759    1.544659
O     -2.357155   -2.854455    0.339635
O     -1.435800   -0.454260   -0.421832
H      4.961636   -3.929944    0.496256
H      5.056233   -5.153105   -0.870990
H      5.705606   -3.455259   -1.057732
H     -4.616474    4.660373    0.823896
H     -4.553766    4.432955   -0.955991
H     -2.986309    4.437115    0.039559
H      6.467022    4.301890   -0.578089
H      6.314799    5.567521    0.683364
H      7.072404    3.949735    1.042247
H     -6.933185   -3.848678    0.233081
H     -6.231483   -4.679265    1.735283
H     -6.718967   -2.979724    1.772198
H     -0.056394    4.206902   -1.975889
H     -1.717538    1.613459    1.359164
H      6.257479   -0.066877   -0.575513
H      1.773066    4.284686   -0.924003
H      0.184970    1.738028    2.331796
H      6.685351    2.292613   -0.189347
H      1.425924   -5.649782    0.349993
H      2.708513   -4.700432    1.161698
H     -7.008915    0.882453    0.201379
H     -6.189134    1.520756   -1.265792
H      2.018385   -4.690639   -1.831690
H      3.341210   -5.677537   -1.130453
H     -5.447076    2.040761    1.689361
H     -6.179414    3.244989    0.527301
H     -2.188772    2.143863   -2.366945
H     -2.923980    3.573579   -1.735914
H      4.658987   -1.477971   -1.356945
H      5.215980   -1.991965    0.191304
H      2.314213    0.198517    1.249332
H     -0.594988   -4.713439    0.651519
H     -6.496154   -1.285121    0.444282
H      1.223072   -0.206839   -0.833959
H      3.357816   -2.982042    0.829629
H     -4.366564    1.956168   -1.689494
