25

C     -0.061758    0.660791   -1.047763
C      1.910392    1.037795    0.505107
C     -1.607093   -0.868724    0.194517
C      2.710778   -0.955851    0.590352
C     -1.344710    0.550434   -0.248697
C      1.115971    0.234792   -0.285731
N     -1.265549    1.397870    0.910446
N      2.890423    0.298443    1.041518
N      1.635358   -1.001205   -0.215759
O     -1.689145   -1.718610   -0.918676
Cl     0.688808    0.000000    0.000000
Cl     0.685395    0.000000    0.000000
H      0.010866    1.736622   -1.358497
H     -0.168448    0.095549   -2.006335
H      1.759199    2.116343    0.667201
H     -0.837544   -1.199238    0.905966
H     -2.609645   -0.877546    0.669162
H      3.378278   -1.780107    0.874287
H     -2.169969    0.864201   -0.918172
H     -2.220126    1.501291    1.340880
H     -0.623358    0.968295    1.612687
H      1.314072   -1.883589   -0.677170
H     -2.127993   -1.177554   -1.635326
H     -0.688808    0.000000    0.000000
H     -0.685395    0.000000    0.000000
