46

C     -3.659364    1.761049   -1.105410
C     -4.851545   -0.035145    0.006816
C     -1.714300   -2.097742    0.015131
C      2.342097    2.035223   -0.395767
C      4.189789   -1.639792   -0.100271
C      3.378695    1.742411    0.608494
C      4.574003   -0.302663    0.529395
C      0.645060    0.850412   -1.773226
C     -3.550997    0.296383   -0.646235
C     -2.183577   -1.074211    0.973804
C      1.727837    0.933264   -0.786511
C      3.003252   -1.199314   -0.964603
C      2.322740   -0.217157   -0.052776
C     -1.221888    0.860324   -0.175057
C     -2.462600    0.278734    0.387095
N      3.304477    0.323534    0.834308
O     -1.165827   -0.886486    1.942045
O      2.217585   -2.289943   -1.283992
O     -0.768118    1.911251    0.331927
O     -2.882835    1.092701    1.437010
O     -0.547254    0.300828   -1.225177
H     -3.454443    2.461575   -0.297723
H     -4.704260    1.891187   -1.453145
H     -3.019848    1.916841   -2.003418
H     -5.339203    0.903258    0.406413
H     -5.606773   -0.437658   -0.715616
H     -4.774683   -0.700274    0.889176
H     -1.803875   -1.824058   -1.051639
H     -2.288426   -3.063393    0.119340
H     -0.642104   -2.399576    0.156506
H      2.133509    3.056292   -0.751997
H      4.986375   -2.062995   -0.713412
H      3.834463   -2.328761    0.698828
H      4.386320    2.006846    0.274495
H      3.155337    2.240394    1.589359
H      5.192238   -0.484224    1.412252
H      5.148971    0.294538   -0.214157
H      0.965638    0.266521   -2.670866
H      0.378361    1.874165   -2.102077
H     -3.331569   -0.269738   -1.550745
H     -3.034353   -1.474531    1.561147
H      3.431614   -0.709201   -1.870009
H      1.543348   -0.788145    0.513345
H     -0.532428   -1.645756    1.917627
H      2.848183   -3.040897   -1.508592
H     -2.169622    1.673928    1.789722
