29

C      4.043471   -1.108873    0.467232
C     -0.337733    1.409948   -0.465934
C      0.683704    2.341272   -0.246013
C      1.253291   -0.351094   -0.127684
C     -3.036731    0.022646    0.593539
C     -0.037991    0.076009   -0.402906
C      1.947626    1.895854    0.023746
C     -2.460647   -0.481472   -0.722493
C      2.264953    0.553175    0.089657
C     -1.074681   -0.970493   -0.599039
O     -4.382569    0.313517    0.373775
O      2.962466    2.841122    0.242264
O     -3.256459   -1.647107   -0.974941
O     -0.715164   -1.699573   -1.756141
O      3.565407    0.206456    0.366942
H      4.228613   -1.494786   -0.554520
H      3.361351   -1.803552    0.969180
H      5.007502   -1.105463    1.042291
H     -1.341982    1.741468   -0.698701
H      0.405508    3.384748   -0.303996
H      1.501127   -1.394834   -0.076203
H     -2.537134    0.857247    1.048091
H     -2.956216   -0.825164    1.339293
H     -2.658922    0.197424   -1.542848
H     -1.021249   -1.682267    0.256738
H     -4.738879   -0.429639   -0.188215
H      2.770679    3.828256    0.202681
H     -3.257693   -2.192828   -0.125388
H     -0.181650   -2.481996   -1.503036
