85

C     -5.203744   -3.189538    2.385359
C      5.206890    2.190364   -0.603196
C     -1.241477    6.118607   -0.243693
C     -6.111441    3.487193   -1.903832
C      7.713157   -3.854730    0.656036
C     -1.025072   -2.347101    1.163114
C     -1.276575   -2.797143   -1.123710
C      1.668042    3.251344   -0.690843
C      0.323132   -1.957499    0.932033
C      0.067092   -2.404699   -1.320518
C      0.695485    4.197209   -0.542361
C     -6.623962   -1.159977   -0.173989
C      6.078471    0.686081    1.444309
C     -6.497820   -1.692541    1.206167
C      5.052311    1.725982    1.737369
C     -3.308738   -3.162095    0.373908
C      2.693386    1.168349   -1.084117
C      0.096960    1.500668   -1.183615
C     -5.678001    1.013612   -0.935632
C      6.171769   -1.602453    0.733879
C     -3.091046    0.071519   -0.365925
C     -1.848655   -2.776073    0.128158
C      1.402248    1.890928   -1.012506
C     -5.453051   -0.240247   -0.445625
C      5.366243   -0.456496    0.759299
C      0.887560   -1.980815   -0.304654
C     -4.163028   -0.758631   -0.143925
C     -4.332001   -2.141301    0.368712
C      3.331949    0.881240    0.258414
C     -0.578995    3.781621   -0.716898
C     -4.575715    1.792556   -1.137615
C     -0.921252    2.464440   -1.031881
C     -3.266199    1.352082   -0.863093
C      5.596921   -2.732003    0.216955
C      4.066395   -0.429469    0.297306
C      4.280194   -2.706364   -0.244737
C      3.452691   -1.603218   -0.234925
N     -5.113080   -2.001701    1.590790
N      4.341592    1.895083    0.492310
O      3.906933   -3.965995   -0.730703
O     -1.547219    4.802323   -0.554755
O     -4.790712    3.088821   -1.644130
O      6.382448   -3.890142    0.175808
O      2.198289   -1.630203   -0.668167
O     -2.293231    2.308540   -1.144888
H     -4.348067   -3.371043    3.070803
H     -6.110375   -3.150523    3.075038
H     -5.365963   -4.127689    1.817328
H      4.878221    3.128366   -1.098471
H      5.404899    1.413821   -1.324976
H      6.196722    2.483056   -0.150478
H     -0.542046    6.507341   -1.029670
H     -0.754336    6.159140    0.762571
H     -2.200924    6.685557   -0.236376
H     -6.721777    3.629572   -0.987844
H     -6.143453    4.475225   -2.437688
H     -6.667997    2.790043   -2.565243
H      8.195059   -4.841453    0.548374
H      7.705541   -3.497663    1.725073
H      8.322284   -3.101298    0.072168
H     -1.201941   -2.195959    2.252584
H     -1.727634   -3.067089   -2.149306
H      2.676795    3.618375   -0.538580
H      0.775680   -1.640991    1.910735
H      0.376918   -2.486346   -2.425146
H      0.930816    5.243800   -0.297416
H     -6.839578   -1.852945   -0.977268
H     -7.562277   -0.508085   -0.148424
H      6.936491    0.997295    0.851139
H      6.480436    0.252929    2.402287
H     -7.176266   -2.555156    1.330542
H     -6.824961   -0.914576    1.931081
H      5.431569    2.664689    2.144393
H      4.317059    1.278849    2.453890
H     -3.590684   -3.980893   -0.325149
H     -3.447139   -3.758447    1.349277
H      3.476567    1.853816   -1.596753
H      2.812045    0.267406   -1.671740
H     -0.190631    0.436936   -1.452196
H     -6.697818    1.334407   -1.140400
H      7.197766   -1.589948    1.107584
H     -2.032771   -0.283238   -0.126558
H     -5.116578   -2.613901   -0.328196
H      2.623104    0.890654    1.083005
H      4.486097   -4.762160   -0.749986
