54

C     -2.540182   -2.536909    0.755198
C      2.747664   -2.260791   -0.557122
C     -4.503811   -0.447186    1.013528
C      4.044176    0.439386   -0.170381
C     -3.429661   -0.412679    0.008618
C      2.581342    0.240508   -0.522926
C     -5.854921   -0.421186    0.289230
C      4.114838    1.752654    0.606912
C     -5.510064    0.968932   -1.810344
C      6.087195    1.722817    2.191493
C     -5.751848    2.264499   -2.168806
C      7.377404    2.262604    2.148355
C     -1.462902   -1.208759   -1.201203
C      0.907599   -1.043563   -1.746722
C     -6.414100    2.065688   -0.128975
C      6.393285    2.817999    0.314577
C     -2.509469   -1.351141   -0.142323
C      2.338047   -1.010914   -1.291644
C     -5.929408    0.831482   -0.509367
C      5.470311    2.082999    1.018753
C     -0.066716   -1.189603   -0.603884
O      0.183458   -2.383821    0.022544
O     -6.283384    2.867414   -1.146424
O      7.518785    2.904186    1.019443
H     -1.920737   -3.357156    0.304847
H     -3.566046   -2.953570    0.824999
H     -2.132084   -2.338740    1.756736
H      2.216619   -3.156032   -0.941628
H      3.846489   -2.408034   -0.647294
H      2.519622   -2.212615    0.525950
H     -4.422979   -1.313348    1.678448
H     -4.403050    0.462846    1.644099
H      4.654297    0.557946   -1.088244
H      4.442495   -0.394370    0.408988
H     -3.389754    0.444824   -0.656640
H      1.936517    0.254611    0.368906
H      2.299224    1.096793   -1.175910
H     -6.683703   -0.413018    1.024658
H     -5.958371   -1.280456   -0.371804
H      3.659585    2.525286   -0.073130
H      3.392688    1.644013    1.450206
H     -5.071166    0.183974   -2.422966
H      5.714757    1.142869    3.022632
H     -5.545570    2.730258   -3.129819
H      8.099208    2.148408    2.927500
H     -1.602634   -2.062621   -1.889304
H     -1.648904   -0.294174   -1.778176
H      0.696373   -0.052083   -2.215491
H      0.751646   -1.845346   -2.492444
H     -6.814039    2.270213    0.841187
H      6.291729    3.281710   -0.659074
H      2.966030   -0.967373   -2.215837
H      0.001347   -0.312161    0.066615
H      0.162776   -2.337269    1.009008
