27

C      3.024173    1.524185   -0.634766
C      3.100949    0.422538    0.405228
C     -3.796631    0.719158   -0.945036
C     -2.934973    1.506828   -0.229567
C     -3.542794   -0.619366   -1.139296
C     -1.786365    0.883683    0.292691
C     -2.421739   -1.214666   -0.626188
C     -1.518348   -0.436758    0.111638
C     -0.305558   -1.059649    0.675457
C      0.673441   -0.058130    1.081835
C      1.560765   -1.461410   -0.451831
N      0.372917   -1.878468   -0.276137
N      1.867431   -0.326403    0.337887
O      0.623899    0.908297    1.911741
O      2.493418   -2.050928   -1.335148
H      3.538072    2.405785   -0.220012
H      3.497310    1.158235   -1.583619
H      1.948844    1.746333   -0.859512
H      4.001504   -0.212373    0.265379
H      3.187444    0.886867    1.410887
H     -4.688848    1.204673   -1.350344
H     -3.136536    2.556792   -0.078632
H     -4.258748   -1.212702   -1.718057
H     -1.159406    1.581028    0.842602
H     -2.201180   -2.279452   -0.769640
H     -0.559930   -1.652359    1.596447
H      2.420890   -3.041739   -1.581399
