26

C      3.132281    0.298442    0.510870
C     -1.631060   -1.043604    1.053338
C     -2.254725    0.433597   -0.746165
C      1.138597   -1.152759   -0.054694
C      0.463471    0.401675   -1.657920
C     -0.282248    1.022810    0.549249
C      1.908012    0.146245    0.083160
C      0.909480    1.146141   -0.388239
C     -0.077026   -0.813017   -0.883547
C     -1.064338   -0.130613    0.014118
H      3.720885   -0.534304    0.815074
H      3.526977    1.317103    0.543276
H     -2.015467   -1.940969    0.514824
H     -0.939271   -1.381015    1.813968
H     -2.520998   -0.572849    1.520899
H     -2.033793    1.401371   -1.223497
H     -3.030708    0.643066    0.027927
H     -2.690212   -0.314802   -1.424236
H      0.914189   -1.458903    0.965373
H      1.763406   -1.931907   -0.522013
H     -0.307805    0.927234   -2.201806
H      1.343914    0.124046   -2.249346
H      0.046071    0.886399    1.611592
H     -0.836337    1.990924    0.472095
H      1.267273    2.128378   -0.556278
H     -0.450569   -1.592690   -1.510401
