37

C     -1.336315   -2.847974    1.085485
C      2.649971    2.889924    0.211262
C      1.352936    2.432929    0.133031
C      3.758585    2.023377    0.255713
C     -1.206699    1.138017    0.011103
C      0.988508   -1.846424    0.038327
C      3.598881   -1.545531    0.183480
C     -2.463552   -0.790034    0.834591
C      2.264845   -1.137546    0.118791
C     -2.491092    0.396484   -0.077713
C      1.209010    1.064103    0.100858
C     -0.104348    0.423249    0.016412
C      3.596514    0.645413    0.222414
C     -0.240030   -1.045314   -0.065040
C      2.290612    0.222118    0.144344
C     -3.614299    1.274185    0.298267
N     -3.378298    2.494222    0.636745
N      4.402748   -0.445187    0.246461
N     -1.188557   -1.402887    1.004443
O     -4.917738    0.807073    0.292966
H     -2.410387   -3.077775    1.284912
H     -0.704442   -3.288215    1.863039
H     -1.093395   -3.256852    0.091345
H      2.866022    3.948552    0.241805
H      0.540454    3.117758    0.101091
H      4.763915    2.414263    0.317001
H     -1.178765    2.204348    0.068779
H      0.942907   -2.626154    0.855445
H      1.059146   -2.483652   -0.896533
H      3.961045   -2.551782    0.185074
H     -3.229719   -1.503728    0.459595
H     -2.846733   -0.434618    1.833891
H     -2.630655    0.023760   -1.124462
H     -0.820776   -1.260625   -1.007600
H     -4.144383    3.126041    0.903046
H      5.437096   -0.399488    0.303035
H     -5.683012    1.297970    0.772660
