27

C      1.601810    0.419027    1.061427
C      1.458760   -0.122353   -1.358082
C     -0.554315    2.030246   -0.329927
C     -0.562510   -1.198894    1.518400
C     -1.282920    0.090742    1.104872
C     -1.171074   -0.209906   -1.304201
C      0.190239   -1.489916    0.240407
C     -0.817260   -1.574748   -0.843306
C      0.763823   -0.096975   -0.043164
C     -0.606632    0.595913   -0.126653
O     -1.266897   -2.605315   -1.269783
H      2.504399    0.916562    0.601444
H      1.979863   -0.323233    1.761571
H      1.042326    1.259114    1.558586
H      2.560274   -0.252845   -1.148620
H      1.194553   -1.000480   -1.996969
H      1.370536    0.834108   -1.932249
H      0.393888    2.424906   -0.772473
H     -1.418110    2.395536   -0.930219
H     -0.639030    2.558354    0.663020
H     -1.262884   -1.988652    1.808525
H      0.122493   -0.962258    2.346804
H     -2.325045   -0.249851    0.836057
H     -1.371566    0.800529    1.920418
H     -2.239392   -0.041780   -1.424339
H     -0.578969    0.059272   -2.225977
H      0.913640   -2.267101    0.284431
