81

C      6.350679    1.281486    2.805361
C      6.616519   -1.153021    2.103274
C     -6.195122   -0.162684   -0.306785
C     -5.360525   -1.296578    1.673083
C     -2.327191   -1.388414    1.655153
C      0.912371   -1.181937   -0.267922
C     -0.462879    1.844908   -2.145787
C      5.465103   -0.619645   -0.379763
C      5.625048    0.451661    0.597185
C      4.001133   -0.870933   -0.777430
C     -2.406863   -0.857336   -1.682698
C     -3.687046   -1.065986   -0.946377
C      1.666845   -0.573341   -2.913714
C     -0.440769    1.210243    0.911579
C     -4.041929    1.885627    1.905920
C     -2.943494    0.898662    2.208504
C      0.133847   -0.455968   -2.927935
C      0.892188    1.209570    0.225174
C      6.168645    0.215910    1.778316
C      3.449220    0.377311   -1.374428
C      2.064545    0.383972   -1.842989
C     -1.461272    0.375962    0.260786
C     -1.416884   -0.029168   -1.001679
C     -3.813158   -0.041891    0.135270
C     -5.342595    1.213690    1.550305
C      4.365846    0.801010   -2.453128
C     -5.157804   -0.078317    0.823529
C     -2.647172   -0.042517    1.089475
C      0.969734    0.202780   -0.852843
C     -0.236031    0.431304   -1.777595
O     -6.160017    1.046228    2.688152
O      4.924963    1.912513   -2.412060
O      4.608110   -0.037882   -3.517640
H      5.691588    1.095714    3.664205
H      7.394345    1.279794    3.201795
H      6.165876    2.286993    2.414043
H      7.112448   -1.203215    3.096076
H      5.719645   -1.815164    2.081281
H      7.379804   -1.477429    1.341419
H     -5.907857    0.551253   -1.090479
H     -7.161290    0.203174    0.129156
H     -6.294684   -1.204206   -0.649415
H     -5.200873   -1.091576    2.744159
H     -4.778500   -2.169688    1.298046
H     -6.437560   -1.631018    1.599565
H     -1.233206   -1.364138    1.939431
H     -2.856660   -1.585865    2.610441
H     -2.408663   -2.218672    0.927957
H     -0.116875   -1.605347   -0.276899
H      1.538230   -1.925517   -0.761931
H      1.198472   -1.111541    0.800463
H      0.286145    2.578238   -1.874791
H     -1.455257    2.238670   -1.799782
H     -0.544197    1.887865   -3.273177
H      6.087927   -0.487203   -1.294015
H      5.802998   -1.603313    0.053261
H      5.303885    1.455703    0.371839
H      4.011721   -1.755679   -1.406237
H      3.510020   -1.048649    0.225551
H     -1.983482   -1.890654   -1.863729
H     -2.602326   -0.410940   -2.679566
H     -4.541669   -0.891414   -1.655010
H     -3.827278   -2.106077   -0.587550
H      1.886726   -1.621675   -2.742237
H      2.089581   -0.246847   -3.903229
H     -0.298332    0.780748    1.946824
H     -0.819709    2.250322    0.961350
H     -3.690398    2.593690    1.140396
H     -4.221532    2.469369    2.831327
H     -2.085578    1.490215    2.573085
H     -3.282515    0.301364    3.105616
H     -0.139370    0.087946   -3.862228
H     -0.344790   -1.430432   -2.955680
H      1.705781    0.948425    0.968661
H      1.177652    2.250009   -0.084037
H      3.528334    1.161894   -0.559469
H      1.893095    1.413639   -2.298333
H     -3.775432    0.962109   -0.379877
H     -5.895754    1.914960    0.891288
H     -7.116334    1.042556    2.366444
H      5.421805    0.078938   -4.116299
