48

C     -6.386058   -0.549741   -0.363359
C      3.905324    2.135297    1.792379
C     -2.002133    1.707795    0.426078
C      3.875217   -2.178385   -0.676419
C     -2.965210    2.715267    0.483271
C      5.048288   -2.179554    0.040280
C     -3.714354    0.140108    0.012210
C      3.321411   -0.064909    0.185314
C      0.284463    0.553488   -1.311376
C     -0.590922   -2.016902   -1.509853
C     -2.376258    0.412353    0.189077
C      2.959979   -1.120258   -0.634947
C      0.022772   -0.271666   -0.102640
C      0.549508   -1.631231   -0.614364
C     -4.305398    2.394757    0.298584
C      5.362012   -1.116307    0.836196
C     -4.690322    1.093959    0.060085
C      4.496544   -0.046849    0.914363
C     -1.420079   -0.676091    0.106209
C      1.733270   -1.161408   -1.420910
O     -5.234498    3.430861    0.363608
O      6.552175   -1.142615    1.549240
O     -6.026816    0.783068   -0.122540
O      4.798163    1.041648    1.717212
O     -1.714304   -1.614969   -0.838411
O      1.341021   -0.005880   -2.026525
H     -5.948349   -0.925735   -1.296553
H     -6.063521   -1.228995    0.475321
H     -7.505706   -0.613562   -0.415848
H      4.440428    2.959336    2.342415
H      2.986724    1.846687    2.358620
H      3.642276    2.531364    0.798534
H     -0.989008    2.021036    0.585771
H      3.600633   -3.011984   -1.317940
H     -2.664328    3.720131    0.667858
H      5.709929   -3.036655   -0.042063
H     -4.039921   -0.893435   -0.179282
H      2.685203    0.788566    0.273259
H     -0.603715    0.724118   -1.951848
H      0.660433    1.571944   -1.006210
H     -0.603533   -3.098818   -1.743837
H     -0.504814   -1.395320   -2.429085
H      0.513875    0.036887    0.820859
H      0.776214   -2.318108    0.189645
H     -1.420447   -1.200993    1.111409
H      1.875880   -1.960784   -2.208078
H     -6.221547    3.246958    0.235585
H      6.849497   -0.394475    2.156121
