52

C     -4.765124   -2.326559   -0.927387
C      0.194871   -2.513283    0.499797
C      0.458549    4.032974    1.391424
C     -4.000412   -1.099975   -1.371041
C      5.078583    0.202428    1.498166
C      5.653969    0.465763    0.256382
C      3.705498    0.100678    1.603552
C      4.877359    0.628128   -0.877356
C      0.750202   -0.050363    1.455747
C     -1.292960    0.129898   -1.849397
C     -1.975189   -1.942251   -0.144535
C     -2.957461   -0.809495   -0.335587
C      2.963611    0.266684    0.461315
C     -2.136754    0.422855   -0.689569
C      1.592028    0.220120    0.267726
C      3.504601    0.527598   -0.778499
C     -0.633204   -0.352310    1.039235
C      0.096990    0.524688   -1.865101
C     -1.418047    0.807440    0.583078
C      1.311961    0.445637   -1.046891
C     -0.798777    2.116218    0.517036
N      2.511052    0.633753   -1.677699
N     -0.609120   -1.422044    0.021867
O      0.418541    1.157770   -2.932023
O     -0.869110    2.766513   -0.557141
O     -0.123652    2.732607    1.545248
H     -4.217769   -3.233323   -1.264885
H     -5.807677   -2.317981   -1.334296
H     -4.802326   -2.372371    0.195261
H      1.266277   -2.295714    0.551648
H      0.080930   -3.356647   -0.228793
H     -0.110185   -2.848699    1.531653
H      0.676107    4.226126    0.317593
H     -0.224760    4.829524    1.730080
H      1.368925    4.078309    2.003022
H     -3.528294   -1.264819   -2.361716
H     -4.690936   -0.255422   -1.412660
H      5.683990    0.075161    2.385856
H      6.712209    0.543869    0.176875
H      3.207825   -0.103238    2.548197
H      5.363236    0.834566   -1.839503
H      1.206122   -0.917192    2.054151
H      0.841129    0.784665    2.187595
H     -1.817113    0.626881   -2.730677
H     -1.375751   -0.957813   -2.161017
H     -1.956414   -2.624035   -1.017537
H     -2.266373   -2.561283    0.733203
H     -3.465912   -0.652001    0.648642
H     -2.903826    1.237862   -0.854799
H     -1.113054   -0.888661    1.923115
H     -2.276698    0.919780    1.325786
H      2.612328    0.826990   -2.693376
