52

C     -4.739377   -1.462257    1.781582
C     -0.454411   -3.452932   -0.006742
C      1.048115    1.992465   -3.526667
C     -3.904153   -0.262608    1.371529
C      5.238242   -0.070770   -0.285780
C      5.564697    1.266735   -0.080523
C      3.921345   -0.482270   -0.176100
C      4.555857    2.131030    0.225420
C      0.922645   -1.048161    0.146462
C     -1.573435    1.269146    1.016358
C     -1.943522   -1.757655    0.838530
C     -2.890435   -0.710598    0.368193
C      2.924971    0.413231    0.133940
C     -2.038218    0.477308   -0.124715
C      1.556321    0.262425    0.300050
C      3.219125    1.744104    0.342539
C     -0.217492   -1.173317   -0.754948
C     -0.284589    1.981116    0.881669
C     -1.059576   -0.029773   -1.125014
C      1.062368    1.511167    0.605049
C     -0.465102    1.041667   -1.927140
N      2.077786    2.380508    0.624394
N     -1.115815   -2.209419   -0.235105
O     -0.349855    3.249499    1.035252
O     -0.932658    2.201558   -1.801434
O      0.577655    0.863785   -2.818184
H     -4.832944   -2.125997    0.904791
H     -5.765971   -1.165065    2.073150
H     -4.204921   -2.000171    2.586994
H     -1.071670   -4.030432    0.741989
H     -0.490621   -4.096627   -0.930645
H      0.551507   -3.386512    0.410409
H      1.339537    2.776293   -2.802127
H      0.210669    2.400789   -4.126732
H      1.934818    1.750961   -4.148552
H     -4.603826    0.426144    0.844141
H     -3.518401    0.278118    2.233384
H      6.052602   -0.740373   -0.527461
H      6.605243    1.573512   -0.170645
H      3.692759   -1.525846   -0.339910
H      4.783611    3.169077    0.388386
H      1.714953   -1.798239   -0.122538
H      0.618697   -1.387244    1.186990
H     -2.378603    2.001049    1.331435
H     -1.533078    0.572584    1.910907
H     -1.388205   -1.450602    1.739122
H     -2.554434   -2.642508    1.152106
H     -3.441726   -1.080328   -0.522990
H     -2.788932    1.101370   -0.699157
H      0.159456   -1.627951   -1.725638
H     -1.775673   -0.507091   -1.911667
H      1.984660    3.389111    0.827408
