47

C     -6.295061   -0.742966    0.832886
C      6.472527    1.282825    1.013744
C      5.247137   -2.283521   -0.900648
C      3.904810   -2.480391   -1.141936
C      5.639825   -1.101991   -0.267828
C     -3.192068   -0.209074   -0.760367
C     -3.471004    1.400337    1.169296
C     -5.356588    0.226856    0.232783
C      2.948692   -1.530476   -0.768474
C     -1.737486   -0.031839   -0.517367
C     -2.334105    2.124728    0.497471
C      4.709030   -0.157767    0.105483
C     -1.331654    1.110928    0.097439
C      3.361030   -0.381586   -0.149890
C      0.513208   -0.810192   -0.667268
C      0.939288    0.364403   -0.034366
C      1.537129   -1.765597   -1.036262
C     -0.830125   -1.029994   -0.920136
C      0.016670    1.333052    0.352011
C      2.351123    0.607294    0.237340
C     -3.903054    0.138039    0.517136
O     -5.758201    1.111087   -0.501696
O     -2.764658    2.879754   -0.590781
O      1.192162   -2.838120   -1.609474
O     -1.283863   -2.155064   -1.531199
O      0.304675    2.512169    0.972482
O      2.794589    1.644623    0.803429
O     -3.670258   -0.956009    1.386313
O      5.118327    0.997355    0.726859
H     -6.374809   -1.641987    0.183137
H     -5.855535   -1.111596    1.805645
H     -7.299358   -0.314371    1.028744
H      6.631555    2.344235    1.223073
H      7.056949    1.026138    0.085006
H      6.833755    0.604026    1.818479
H      5.950939   -3.024563   -1.196475
H      3.520591   -3.373078   -1.629367
H      6.685768   -0.971965   -0.091503
H     -3.469050    0.561338   -1.537015
H     -3.460487   -1.213083   -1.076905
H     -3.104298    1.175386    2.214591
H     -4.335320    2.103796    1.357609
H     -1.929529    2.845822    1.237084
H     -2.079327    3.572908   -0.748939
H     -0.936049   -2.968158   -1.900925
H      1.160723    2.860988    1.238058
H     -4.118612   -1.734698    0.935324
