52

C     -4.653843   -0.720362    0.395520
C      0.459600   -0.636567    2.736661
C     -0.520430    4.683590   -0.275131
C     -3.424524   -1.042472    1.215858
C      5.235964   -0.303820    0.155891
C      5.457124   -1.453593   -0.558944
C      3.964671    0.246318    0.223765
C      4.444831   -2.105268   -1.231716
C      1.039815    1.143366    0.135478
C     -1.506805   -0.364169   -1.868761
C     -1.014190   -1.540113    1.123716
C     -2.195470   -1.228993    0.314871
C      2.942314   -0.371638   -0.428869
C     -2.097951   -0.012015   -0.563231
C      1.623744   -0.048618   -0.523714
C      3.175113   -1.540313   -1.153584
C     -0.221162    0.751928    0.927426
C     -0.327195   -1.272387   -1.799631
C     -1.483640    1.079785    0.224270
C      1.029318   -1.024797   -1.314818
C     -1.324541    2.367139   -0.495780
N      1.991063   -1.893699   -1.667998
N     -0.050105   -0.570805    1.361283
O     -0.505025   -2.443825   -2.220573
O     -1.654481    2.594658   -1.670653
O     -0.749685    3.405905    0.230142
H     -4.591154   -1.153976   -0.622510
H     -4.847006    0.374228    0.391553
H     -5.561457   -1.184527    0.871994
H     -0.342154   -0.857945    3.461940
H      0.813885    0.397833    2.986104
H      1.301215   -1.337527    2.832953
H      0.389330    5.089975    0.255474
H     -1.344184    5.379503    0.016584
H     -0.342939    4.670467   -1.363740
H     -3.620054   -2.047807    1.677642
H     -3.245303   -0.319387    2.013147
H      6.028171    0.217159    0.689720
H      6.457152   -1.861010   -0.595433
H      3.764921    1.155572    0.783002
H      4.601996   -3.015692   -1.801965
H      1.795563    1.616783    0.755316
H      0.717287    1.828890   -0.663686
H     -2.290350   -0.951619   -2.435078
H     -1.247784    0.470060   -2.529103
H     -1.373695   -1.934641    2.125041
H     -0.503493   -2.452692    0.686007
H     -2.463093   -2.082745   -0.350945
H     -3.167463    0.302593   -0.770213
H     -0.161784    1.421082    1.840691
H     -2.247727    1.320684    1.030927
H      1.845610   -2.744497   -2.269711
