35

C     -2.742556   -0.176315   -1.233867
C     -1.440721   -0.041722    0.724202
C      4.066316   -0.149150    1.209256
C      2.598758   -1.780999    0.346420
C     -1.493511   -0.149870   -0.647442
C      3.744781   -1.480295    1.051935
C      3.246507    0.825725    0.665791
C     -3.883255   -0.095885   -0.453477
C     -2.595027    0.039770    1.515200
C      1.773256   -0.808277   -0.200531
C      2.103275    0.516746   -0.037716
C     -3.835571    0.012323    0.917818
C      1.225140    1.526545   -0.618739
C      0.294347    1.130328   -1.726170
C     -0.258943   -0.236086   -1.480602
O      4.550529   -2.501340    1.588122
O      3.545165    2.187840    0.807823
O     -5.166371   -0.120756   -1.027012
O     -2.493721    0.147504    2.891463
O     -4.996521    0.093084    1.698300
O      1.283153    2.692978   -0.167023
O      1.056296    1.086154   -2.909884
O      0.632814   -1.134230   -0.901737
H     -2.817882   -0.261601   -2.322270
H     -0.469542   -0.020456    1.189117
H      4.942422    0.142321    1.746604
H      2.349046   -2.836094    0.224928
H     -0.497866    1.891846   -1.781182
H     -0.536485   -0.658990   -2.489819
H      5.315761   -2.895942    1.024021
H      4.380049    2.470989    1.319721
H     -5.218194   -0.200347   -2.039050
H     -3.346010    0.203920    3.428123
H     -5.918631    0.075031    1.283693
H      0.603192    0.505251   -3.596018
