38

C     -1.022627    2.183260    1.260310
C      3.476293    0.908498    0.145882
C     -2.010719   -1.748231    0.292782
C      0.398330   -2.386173    0.057384
C     -1.215642    1.438907   -1.121581
C     -1.546497    0.204515   -1.934141
C      0.799283   -0.294998   -1.698667
C      0.325980   -0.219471    1.913173
C     -1.149571    1.016356    0.316092
C      2.067428    0.567915    0.473359
C     -0.604503   -0.909777   -1.615149
C      1.111326    0.110819   -0.312934
C      1.546230    0.671122    1.852661
C     -0.659901   -1.321811   -0.154868
C     -0.161236   -0.058820    0.495231
O      1.963562    1.325887    2.813154
H     -0.005483    2.570326    1.365452
H     -1.701112    2.984195    0.838744
H     -1.503297    1.900794    2.218811
H      3.869083    1.653547    0.842224
H      3.481101    1.280666   -0.905250
H      4.116495   -0.019348    0.117581
H     -2.157470   -1.352745    1.338982
H     -2.836870   -1.500106   -0.376198
H     -1.978159   -2.867987    0.437449
H      1.357142   -1.946534    0.444309
H      0.686538   -2.867402   -0.914511
H      0.035556   -3.219040    0.695977
H     -2.033412    2.190385   -1.246657
H     -0.292659    1.928958   -1.442712
H     -2.617981   -0.053988   -1.797656
H     -1.416167    0.460679   -3.001635
H      1.514449   -1.053089   -2.091259
H      0.861380    0.567479   -2.351838
H      0.576044   -1.241674    2.192476
H     -0.365844    0.267519    2.626421
H     -2.166220    0.564777    0.534760
H     -0.740849   -1.735412   -2.308158
