39

C      3.383646    0.531023    1.037077
C      0.598665   -2.195968   -1.327415
C     -0.840075    2.341614    0.279301
C     -2.423413    0.860814   -0.823982
C     -1.070162   -1.972156    0.416837
C     -2.003159   -1.128938    1.218424
C      2.140265    0.441327   -1.259305
C      0.699537    0.738627   -1.623031
C      0.028580    0.067070    1.872850
C      2.119671    0.380934    0.224669
C     -0.492843   -1.289111   -0.774709
C     -1.405768    0.250112    1.387317
C      0.891007    0.207266    0.671450
C     -1.208161    0.885139    0.037767
C     -0.050388    0.099359   -0.503022
H      4.178146   -0.042661    0.527226
H      3.712859    1.585897    1.066989
H      3.196424    0.173457    2.067631
H      0.814937   -1.947650   -2.370644
H      1.451338   -2.306495   -0.660868
H      0.109709   -3.215265   -1.372541
H      0.258987    2.488223    0.243807
H     -1.338397    3.010995   -0.453785
H     -1.206873    2.671252    1.283470
H     -2.852974   -0.132650   -1.001472
H     -2.170989    1.343443   -1.785638
H     -3.199486    1.477711   -0.349362
H     -0.243181   -2.352536    1.050070
H     -1.654694   -2.869799    0.047885
H     -2.106006   -1.585539    2.235646
H     -3.001657   -1.106080    0.784366
H      2.810350    1.284079   -1.599356
H      2.554408   -0.459537   -1.694419
H      0.468393    0.312559   -2.613199
H      0.590722    1.835572   -1.671735
H      0.287613    0.879993    2.595736
H      0.214323   -0.884748    2.360250
H     -1.245386   -1.230702   -1.609202
H     -1.995968    0.853367    2.084917
