39

C      3.457085    0.448948    0.898041
C     -0.304883    2.477665    0.262928
C     -1.975289   -1.304338   -1.223068
C      0.226284   -2.319993   -0.822780
C     -2.167425    0.876940    0.597910
C     -2.074920   -0.326724    1.452013
C      2.071164    0.969639   -1.258632
C      0.767202    0.360141   -1.745332
C      0.311712   -0.698382    1.677024
C      2.176083    0.428312    0.135412
C     -0.994510    1.201445   -0.247954
C     -0.971913   -1.283790    1.080778
C      1.014565   -0.046418    0.547027
C     -0.717450   -1.208434   -0.427348
C     -0.030568    0.114153   -0.502137
H      3.484228   -0.502786    1.490918
H      3.487023    1.345921    1.547321
H      4.340208    0.415069    0.234022
H     -1.087395    3.029188    0.824671
H      0.489818    2.223728    0.988597
H      0.023942    3.123633   -0.551430
H     -2.151267   -0.407630   -1.851189
H     -1.919848   -2.162732   -1.923750
H     -2.862098   -1.531862   -0.562392
H     -0.228409   -3.270601   -0.454360
H      1.251706   -2.174508   -0.446056
H      0.193609   -2.395191   -1.946084
H     -3.118440    0.789395   -0.009804
H     -2.381760    1.757886    1.272462
H     -1.910804   -0.070555    2.529710
H     -3.022010   -0.936269    1.454144
H      2.061003    2.062300   -1.245317
H      2.942213    0.568418   -1.818605
H      0.912974   -0.520310   -2.371170
H      0.265222    1.141392   -2.352689
H      0.104256    0.079879    2.422826
H      0.913542   -1.483164    2.172706
H     -1.390762    1.519088   -1.260548
H     -1.184089   -2.289455    1.432138
