24

C     -2.570323    0.446498   -0.997955
C     -3.116309   -0.245457    0.016688
C      3.283873    0.848107   -0.046716
C      1.958581    1.216200    0.028091
C     -1.084119    0.364321   -1.108383
C      3.632453   -0.474649    0.023515
C     -2.148213   -0.991378    0.878705
C      1.373771   -1.075585    0.241088
C      0.989650    0.242713    0.173914
C     -0.464685    0.617611    0.258131
N      2.675331   -1.386347    0.163897
N     -1.118490   -0.096627    1.309340
H     -3.196560    1.009025   -1.663493
H     -4.183886   -0.252760    0.185497
H      4.054947    1.603434   -0.161357
H      1.628623    2.251041   -0.022444
H     -0.765941   -0.661754   -1.426617
H     -0.723700    1.150006   -1.792756
H      4.677028   -0.780953   -0.034261
H     -1.793137   -1.877687    0.344414
H     -2.695999   -1.334797    1.782056
H      0.628346   -1.824803    0.353299
H     -0.533436    1.718136    0.454433
H     -0.507805   -0.464297    2.046498
