39

C      1.822486   -0.322661    1.334146
C      3.299812   -1.163564   -0.375486
C     -2.316017   -2.954519    1.032428
C     -0.974563    3.331219    0.167924
C     -2.676724   -0.453043    0.795460
C      0.952288    2.242875   -0.787647
C     -1.653918    0.668721    0.942219
C      1.681945    1.101381   -1.342121
C     -0.872738   -1.542308   -0.394468
C      1.811637   -0.999476    0.002463
C     -1.890218   -1.658193    0.429954
C     -0.281898    2.117867   -0.392238
C      1.088549   -0.243174   -1.091062
C     -1.080707    0.869791   -0.440153
C     -0.401003   -0.294861   -1.022544
H      2.789430   -0.506950    1.892440
H      1.069756   -0.857461    1.986292
H      1.552704    0.730397    1.322934
H      3.433086   -1.126148   -1.471090
H      3.861752   -0.267907    0.021183
H      3.697773   -2.059893    0.094966
H     -2.998906   -3.442929    0.312352
H     -1.446687   -3.605378    1.183777
H     -2.894136   -2.782714    1.963592
H     -1.970000    3.469943   -0.262987
H     -0.388666    4.263682   -0.075800
H     -1.050666    3.292544    1.254427
H     -3.273965   -0.583515    1.715765
H     -3.318733   -0.180650   -0.077592
H      1.470399    3.192391   -0.716744
H     -0.941471    0.391608    1.711123
H     -2.254559    1.571941    1.203513
H      2.741926    1.085405   -1.014193
H      1.745004    1.282254   -2.456068
H     -0.345445   -2.467849   -0.630316
H      1.447366   -2.026483    0.124125
H      1.352830   -0.847528   -2.029265
H     -1.990923    1.164766   -1.054650
H     -0.796799   -0.389583   -2.101829
