83

C     -1.681092   -1.992170   -0.479172
C     -5.805960   -0.675758    2.578954
C     -5.892099   -1.446133   -1.186388
C     -6.027635    0.869991   -1.898071
C      6.582086    0.322967   -1.683191
C      7.351066    1.013183    0.502666
C      3.702933   -0.804851   -1.399346
C      1.888106   -2.267876    1.393680
C      0.654570   -0.316279   -0.730798
C     -7.928384    1.226043    0.524960
C      4.358908    2.706585   -0.467147
C     -0.745905    0.233205   -0.832672
C     -7.240427    1.131757    1.869890
C      1.297065    0.373696    0.398257
C     -3.166774    0.068826   -0.825748
C     -3.947185   -0.160107    0.459513
C      5.387337   -1.010033    0.847962
C     -7.663149   -0.009451   -0.309739
C      5.822223    2.437309   -0.730356
C      3.500286    1.595967   -1.057094
C      4.256247   -1.891464    1.200258
C     -1.796903   -0.554644   -0.713815
C     -6.058766    0.212401    1.657472
C     -5.308293    0.430357    0.400562
C      5.047682    0.333369    0.324749
C      2.700502    0.038828    0.748808
C     -6.184015   -0.064786   -0.720295
C      6.129667    0.994654   -0.437191
C      3.700984    0.290124   -0.388852
C      2.956022   -1.188211    1.518214
O      2.994636   -0.923017    2.914892
H     -1.365283   -2.188260    0.587815
H     -1.037860   -2.526510   -1.202931
H     -2.683952   -2.455837   -0.567777
H     -4.972817   -1.358328    2.477188
H     -6.428729   -0.752283    3.473963
H     -6.796189   -2.073885   -1.056304
H     -5.094241   -1.976036   -0.625320
H     -5.695555   -1.483558   -2.294343
H     -5.646673    0.338581   -2.795849
H     -6.971727    1.417589   -2.116837
H     -5.289972    1.648286   -1.638276
H      5.908566    0.356479   -2.536419
H      7.511096    0.879243   -2.018638
H      6.978788   -0.715837   -1.484002
H      7.916135    0.073180    0.436840
H      6.996071    1.243335    1.527991
H      7.990823    1.884481    0.208525
H      4.674538   -1.377365   -1.439778
H      2.921443   -1.551979   -1.303360
H      3.605546   -0.383233   -2.443282
H      0.882525   -1.920043    1.598306
H      2.135325   -2.996147    2.226789
H      2.018250   -2.881085    0.479611
H      1.111820   -0.043178   -1.726528
H      0.582799   -1.393656   -0.716024
H     -9.021623    1.267834    0.703873
H     -7.647551    2.120616   -0.032610
H      4.124464    2.833240    0.589521
H      4.095820    3.631131   -1.025528
H     -0.914416    1.288490   -1.005904
H     -7.915860    0.735094    2.630952
H     -6.919111    2.143781    2.155067
H      1.132117    1.468139    0.286987
H      0.696664    0.126873    1.318548
H     -3.069740    1.167549   -0.932641
H     -3.642565   -0.405620   -1.704121
H     -3.878654   -1.201875    0.799040
H     -3.382589    0.435528    1.237919
H      6.081477   -0.859211    1.727189
H      6.033229   -1.567389    0.106902
H     -8.233225    0.083832   -1.256027
H     -7.916129   -0.937419    0.204504
H      6.402873    3.151093   -0.106366
H      6.072925    2.692178   -1.787075
H      3.850557    1.507153   -2.128666
H      2.486926    1.981403   -1.126142
H      4.068235   -2.717887    0.449436
H      4.566140   -2.478082    2.118969
H     -5.171050    1.549963    0.323769
H      4.863127    0.993521    1.228497
H      2.987515    0.899556    1.451522
H      2.115981   -0.647931    3.240060
