83

C      2.020619   -2.052067   -1.682384
C      6.188534   -1.970848    1.187700
C      5.626419    0.644659   -1.558084
C      4.410172    2.345852   -0.320125
C     -6.218796    2.156773    1.038586
C     -4.345011    3.331771    0.050826
C     -4.912070   -1.140660   -0.537249
C     -2.994858   -3.063122    1.344965
C     -0.530638   -2.287101   -0.382386
C      7.830382    0.909314    0.518223
C     -4.579040    1.195022   -2.239609
C      0.500833   -1.277200    0.036075
C      7.389661    0.027369    1.700539
C     -1.803139   -1.639944   -0.800920
C      2.677534   -0.149042   -0.115155
C      3.941031   -0.798782    0.325075
C     -4.477788    0.321935    1.944586
C      6.695627    1.841373    0.278130
C     -5.570399    1.685010   -1.248849
C     -3.441217    0.403759   -1.694956
C     -4.063391   -1.060771    2.211318
C      1.671071   -1.175596   -0.566598
C      6.153793   -0.648875    1.217575
C      4.972799    0.161863    0.808894
C     -4.082759    0.912439    0.633730
C     -2.510828   -0.841594    0.232805
C      5.413399    1.200163   -0.167219
C     -5.009633    1.945828    0.113078
C     -3.771690   -0.216879   -0.353252
C     -2.837824   -1.568497    1.501941
O     -1.769608   -1.384399    2.400895
H      2.955373   -1.709225   -2.195565
H      1.242640   -2.044174   -2.501429
H      2.207976   -3.106061   -1.400720
H      7.057417   -2.549021    1.492777
H      5.345480   -2.552051    0.858022
H      6.476757    1.196207   -2.007525
H      4.774562    0.827853   -2.245214
H      5.934450   -0.423218   -1.535025
H      4.086869    2.493418   -1.365313
H      3.614411    2.316787    0.430771
H      4.981433    3.292206   -0.081952
H     -5.921332    2.371059    2.065995
H     -6.980246    1.385514    0.904932
H     -6.686514    3.111319    0.653533
H     -5.097129    4.124874    0.008554
H     -3.606334    3.448432    0.860707
H     -3.768561    3.394648   -0.916221
H     -5.828424   -0.834820    0.052839
H     -4.763957   -2.189835   -0.309177
H     -5.304321   -1.124997   -1.600168
H     -4.017116   -3.411759    1.685808
H     -2.888544   -3.451627    0.339283
H     -2.300361   -3.643184    1.991084
H     -0.584665   -3.000346    0.445522
H     -0.160418   -2.871921   -1.265103
H      8.091757    0.306955   -0.356151
H      8.692077    1.484764    0.858704
H     -5.159075    0.633759   -3.031157
H     -4.126890    2.053693   -2.818998
H      0.308268   -0.594516    0.853368
H      7.195150    0.713980    2.542349
H      8.202596   -0.661051    1.918548
H     -1.486355   -0.889452   -1.592919
H     -2.477525   -2.327764   -1.370248
H      2.232783    0.391989    0.741940
H      2.794701    0.588389   -0.936814
H      3.678399   -1.471624    1.173613
H      4.418243   -1.409752   -0.473154
H     -4.154763    1.046812    2.749423
H     -5.606138    0.359691    2.004302
H      6.520740    2.436129    1.202216
H      6.960689    2.606501   -0.505355
H     -5.946160    2.682081   -1.632661
H     -6.516518    1.067041   -1.224146
H     -3.273539   -0.437435   -2.432869
H     -2.543247    1.019707   -1.573139
H     -3.904980   -1.153482    3.329969
H     -4.916497   -1.786326    2.046839
H      4.631241    0.726690    1.723270
H     -3.085715    1.421763    0.803315
H     -1.856703    0.019020    0.488755
H     -2.015170   -1.685391    3.313213
