87

C      6.840902   -3.145923    1.921353
C     -6.309555   -1.522514   -3.774320
C     -0.349764    1.013104    2.532319
C      7.133612    4.455130   -1.653610
C     -7.355881    3.503515    2.319758
C      2.467843   -2.060733    0.355124
C      3.434794   -0.748115   -1.356789
C     -3.511446   -1.163074    0.938145
C      1.199127   -1.622106    0.013888
C      2.174308   -0.302315   -1.707369
C     -2.470076   -0.445859    1.467752
C      7.893536   -0.570047   -0.172864
C     -4.987366    1.162209   -1.633742
C      7.981700   -1.214906    1.204404
C     -5.380950    0.410306   -2.868284
C      4.936629   -2.149765    0.101577
C     -4.667637   -2.380892   -0.850845
C     -2.418533   -1.331723   -1.142726
C      6.993469    1.718692   -0.591747
C     -6.373295    1.654474    0.395076
C      4.645041    1.025255    0.763683
C     -7.146367   -0.969797    0.580012
C      3.597659   -1.648298   -0.302477
C     -3.508898   -1.623673   -0.384253
C      6.822115    0.451823   -0.050027
C     -5.892277    0.762959   -0.541978
C      1.042570   -0.734287   -1.025662
C      5.680212    0.098363    0.614766
C     -6.282101   -0.552069   -0.446091
C      5.548327   -1.261368    1.166143
C     -5.769283   -1.521858   -1.442810
C      4.803369    2.287484    0.229882
C     -7.620519   -0.074872    1.509102
C     -1.366621   -0.152257    0.694416
C      5.968894    2.635932   -0.444413
C     -7.221449    1.239452    1.400583
C     -1.350676   -0.606235   -0.627078
N      6.762484   -1.739820    1.690669
N     -5.465748   -0.993323   -2.718559
O      3.769606    3.219326    0.376492
O     -8.485209   -0.499552    2.533410
O     -0.292473    0.571391    1.190037
O      6.043187    3.921351   -0.947230
O     -7.699908    2.132131    2.334941
O     -0.225245   -0.290452   -1.370287
H      7.331791   -3.698028    1.076745
H      7.546345   -3.298607    2.791334
H      5.891603   -3.606863    2.231201
H     -6.887235   -2.374026   -3.313270
H     -5.731338   -1.858457   -4.654518
H     -7.082747   -0.768442   -4.040507
H     -0.578918    0.153407    3.193032
H     -1.229464    1.709048    2.603120
H      0.585999    1.518672    2.845140
H      6.936744    4.305882   -2.741881
H      7.219680    5.539539   -1.414124
H      8.099480    3.993247   -1.363512
H     -6.301955    3.596561    2.667350
H     -8.066418    4.113527    2.904526
H     -7.414401    3.840961    1.260745
H      2.554864   -2.756949    1.176030
H      4.321473   -0.413879   -1.885795
H     -4.372020   -1.377941    1.580584
H      0.346873   -1.988893    0.566006
H      2.045298    0.398461   -2.527318
H     -2.483550   -0.089553    2.506678
H      8.878246   -0.022411   -0.284839
H      7.744275   -1.293330   -0.975825
H     -3.925508    1.127352   -1.384429
H     -5.202219    2.250623   -1.853462
H      8.450467   -0.464740    1.879808
H      8.738580   -2.047333    1.147941
H     -6.324600    0.877001   -3.270081
H     -4.612319    0.635950   -3.657189
H      5.548491   -2.203983   -0.818774
H      4.806245   -3.196518    0.445660
H     -4.325033   -3.156124   -1.564230
H     -5.130651   -2.926109    0.005152
H     -2.369131   -1.666176   -2.172568
H      7.898988    1.979900   -1.111501
H     -6.048204    2.678076    0.291314
H      3.759301    0.709766    1.295628
H     -7.442665   -2.013502    0.638671
H      4.806409   -1.249407    2.031244
H     -6.622869   -2.254757   -1.596485
H      3.854274    4.149241   -0.001720
H     -8.802283    0.211751    3.192715
