43

C      0.885683    2.652547   -0.594376
C     -5.725885   -0.454677   -1.117488
C      0.067782   -0.044306    1.817504
C      0.173244   -0.178346   -1.391546
C     -2.244416   -0.890893    2.217940
C      2.543082   -0.780256   -1.600268
C     -3.007385   -0.024801   -0.276360
C      3.183231    0.395144    0.809563
C      6.120424   -0.992680   -0.896281
C     -1.329795   -0.253604    1.373027
C      1.542048   -0.179808   -0.872826
C     -1.706234    0.181802    0.124302
C      1.910843    0.394667    0.326249
C      0.800404    1.040135    1.097919
C     -0.705575    0.858726   -0.736450
C     -3.528714   -1.076710    1.781302
C     -3.935300   -0.652214    0.536724
C      3.860889   -0.809676   -1.154804
C      4.171736   -0.221734    0.047025
N      0.024512    1.763582    0.128928
O     -4.450441   -1.711666    2.616110
O     -5.234397   -0.857166    0.133672
O      5.016372   -1.346482   -1.706355
O      5.525630   -0.394256    0.242299
H      0.559408    2.778337   -1.667130
H      0.861277    3.656132   -0.110419
H      1.932917    2.270681   -0.669322
H     -5.497337   -1.195776   -1.914365
H     -5.314979    0.533146   -1.386026
H     -6.836287   -0.311874   -1.052462
H      0.084397    0.109975    2.921840
H      0.565079   -1.050035    1.687046
H      0.140974   -0.021472   -2.495920
H     -0.270715   -1.200040   -1.231675
H     -1.920965   -1.226339    3.202868
H      2.322998   -1.256738   -2.562207
H     -3.290935    0.317455   -1.250081
H      3.453364    0.849788    1.750203
H      6.814150   -0.302558   -1.422018
H      6.652665   -1.928550   -0.575792
H      1.208350    1.752138    1.849779
H     -1.205431    1.497405   -1.509422
H     -4.216668   -2.042058    3.529299
