40

C      2.953110   -0.572291   -0.719938
C      3.341435    0.864780    1.218152
C     -1.673482   -3.317143   -1.152735
C     -1.537654    3.445983    0.746597
C     -2.753808    0.577626   -0.941985
C     -2.524531   -0.915733   -1.042373
C     -2.522959    1.246789    0.338231
C     -0.049088   -1.582650   -0.760846
C      0.295884   -1.329139    0.636897
C     -0.073365    1.779812   -0.273873
C      2.629872   -0.376399    0.720649
C     -1.562909   -1.784884   -1.006256
C     -1.404013    2.213904    0.297248
C      1.154818   -0.190705    1.031092
C      0.682609    1.170052    0.808220
O      0.954165    2.019403    1.689906
H      2.561553    0.230059   -1.344507
H      2.761194   -1.598575   -1.055796
H      4.079376   -0.462238   -0.789167
H      3.157027    1.055134    2.295768
H      4.455052    0.763220    1.066450
H      3.006174    1.730786    0.608332
H     -2.345864   -3.771972   -1.825106
H     -0.664236   -3.686756   -1.579060
H     -1.711818   -3.815153   -0.173238
H     -0.699702    4.117258    0.698425
H     -2.471596    3.790488    1.160671
H     -3.847061    0.829696   -1.206892
H     -2.231747    1.136863   -1.751317
H     -3.661695   -1.196313   -1.156475
H     -3.419825    1.780262    0.747707
H     -2.295089    0.484193    1.136950
H      0.415188   -2.587531   -1.045893
H      0.492143   -0.957571   -1.443179
H     -0.652395   -1.245121    1.251116
H      0.775077   -2.246297    1.101867
H     -0.293082    1.237440   -1.165589
H      0.477101    2.710425   -0.618781
H      3.020275   -1.228673    1.326644
H      1.183867   -0.319030    2.172081
