49

C     -3.199148   -2.260455   -0.647727
C     -2.620674   -0.062876   -1.184472
C      5.419595    0.016025   -1.183735
C     -0.173724    5.026060    1.385689
C     -3.074604    0.825609    1.412243
C     -3.567146   -0.486119    0.913108
C     -0.588155   -2.292800   -0.011786
C      1.650720   -2.972270   -0.754287
C     -1.211852    2.402009    1.175968
C      2.698139   -0.454229   -0.524822
C     -1.673772    1.114622    1.059491
C      0.811982   -1.941085   -0.308675
C      1.379779   -0.682187   -0.205726
C     -1.393742   -1.209713    0.546311
C      2.962784   -2.747606   -1.072048
C      3.498094   -1.485969   -0.960164
C      0.091284    2.670874    0.847692
C     -0.799435    0.133814    0.612457
C      0.501378    0.388500    0.281485
C      0.979717    1.668394    0.391963
N     -2.680477   -1.023638   -0.117624
O      3.768689   -3.777995   -1.508428
O      2.258515    2.009570    0.084712
O      4.853254   -1.261608   -1.290291
O      0.621697    3.947808    0.942416
H     -4.308243   -2.197682   -0.712015
H     -2.859690   -2.350104   -1.699601
H     -2.894387   -3.140358   -0.083280
H     -1.595362    0.323871   -1.362674
H     -3.265968    0.839275   -0.977813
H     -2.976010   -0.459398   -2.158811
H      6.434115   -0.010559   -1.607284
H      5.474857    0.381907   -0.132789
H      4.834642    0.786924   -1.750740
H      0.460228    5.914709    1.576832
H     -0.961205    5.260916    0.664342
H     -0.612754    4.730675    2.360182
H     -3.128758    0.826864    2.539046
H     -3.726579    1.666375    1.069988
H     -3.551428   -1.255974    1.739907
H     -4.621713   -0.452784    0.556454
H     -1.067674   -2.816560   -0.885754
H     -0.513547   -3.129451    0.750131
H      1.227207   -3.982646   -0.845282
H     -1.804001    3.240458    1.512785
H      3.176297    0.489301   -0.461365
H     -1.631507   -1.479373    1.630041
H      4.726470   -3.640952   -1.745945
H      2.672113    2.909831    0.139893
