54

C      3.714352    1.205090    1.318604
C      0.766731   -3.214361   -1.201757
C     -4.251477    0.021553    0.395595
C     -3.599114    0.868075   -1.753987
C     -1.839061   -1.379121    1.686623
C     -1.174997    1.952647    0.631738
C      2.050331    0.136390   -0.372129
C     -0.347302   -1.363375   -2.203817
C      1.555056   -0.887136    0.592588
C     -1.278285   -0.242081   -1.820333
C     -2.603074    1.886361    0.186279
C     -0.716063    0.718256    1.347097
C      4.466070    0.429573   -0.825765
C      3.446592    0.579404   -0.002147
C      0.214610   -2.028388   -1.013193
C      0.184863   -1.418916    0.357506
C     -1.957851   -0.455443   -0.513650
C      5.833344    0.832431   -0.534802
C     -3.022973    0.559909   -0.357270
C     -0.990479   -0.574778    0.659270
O      6.749521    0.653896   -1.376387
O      6.175959    1.420982    0.665084
H      2.733935    1.331604    1.857789
H      4.408874    0.585275    1.911349
H      4.057034    2.239411    1.130823
H      1.216220   -3.808581   -0.408206
H      0.785729   -3.639623   -2.188865
H     -4.231330    0.341309    1.467865
H     -5.188380    0.524890    0.007398
H     -4.405079   -1.043727    0.240477
H     -4.030865   -0.002528   -2.238533
H     -4.493368    1.525844   -1.510712
H     -2.955341    1.517810   -2.344769
H     -1.112053   -1.999840    2.294123
H     -2.474778   -2.107863    1.176752
H     -2.320940   -0.732852    2.412041
H     -1.136551    2.790588    1.394063
H     -0.488307    2.315897   -0.159845
H      2.150374   -0.361972   -1.358198
H      1.472999    1.039600   -0.491250
H      0.411387   -0.952942   -2.897573
H     -0.878121   -2.161603   -2.793956
H      2.252952   -1.769354    0.420251
H      1.763828   -0.634769    1.657478
H     -2.069418   -0.272207   -2.610011
H     -0.790597    0.745400   -1.939313
H     -3.288001    2.132169    1.049269
H     -2.753350    2.744269   -0.516937
H     -1.199810    0.795253    2.375016
H      0.354287    0.875915    1.598251
H      4.230200   -0.035255   -1.789789
H      0.176935   -2.349282    1.023328
H     -2.499516   -1.449138   -0.626684
H      6.924299    2.115335    0.754494
