28

C     -2.458932    0.546678    1.122430
C     -2.780287   -1.140179   -0.668612
C      0.024741   -0.997103    0.352951
C      0.110802    1.333955   -0.351194
C      1.498450   -0.838126    0.418925
C      1.468911    1.134422   -0.997414
C     -2.105829    0.158941   -0.277772
C     -0.628621    0.035383   -0.518986
C      2.182318    0.120207   -0.183983
C      3.624824    0.186520   -0.055475
O      4.259897    1.101654   -0.633392
O      4.363379   -0.719946    0.683826
H     -3.055733   -0.263899    1.624469
H     -3.132270    1.452450    1.152398
H     -1.600651    0.789035    1.757299
H     -3.805051   -0.958177   -1.054455
H     -2.893281   -1.814003    0.202445
H     -2.163367   -1.592596   -1.463894
H     -0.152188   -2.044514   -0.021413
H     -0.357836   -0.983921    1.393149
H     -0.410999    2.202465   -0.768242
H      0.320893    1.476394    0.746403
H      2.077751   -1.566036    1.010845
H      1.291607    0.674424   -2.003071
H      2.025716    2.091101   -1.064193
H     -2.515682    0.937834   -0.954381
H     -0.483257   -0.286431   -1.572161
H      5.294695   -1.036534    0.394300
