81

C     -6.163916   -1.801978   -0.722704
C     -7.079281   -0.388129    1.025643
C      5.607089   -0.291552   -1.655035
C      5.693165   -1.789520    0.252220
C      2.956428    1.419907   -1.524885
C     -3.760667    0.407196   -1.453803
C     -0.412927   -1.516130    1.211936
C     -0.885527    1.778684   -0.659405
C     -4.735905    1.096517    1.310433
C      1.614813   -1.724869   -0.394570
C      3.018894   -1.490035   -0.951218
C     -3.403643    1.742732    0.983569
C      1.034634    1.325325    1.209858
C      5.108091    1.930675    0.402162
C      3.640892    1.865916    0.762291
C     -0.385974    1.165771    1.619857
C     -2.815404   -1.584922   -0.430544
C     -1.411692   -1.355000   -0.989432
C     -5.972024   -0.490897   -0.035888
C     -4.688940   -0.311984    0.688319
C      1.541141    0.604344    0.239594
C      0.821029   -0.425352   -0.557035
C      3.671350   -0.482294   -0.050954
C     -2.559990    0.524020    0.753300
C      5.746903    0.598517    0.680407
C      5.156344   -0.429296   -0.224353
C      2.982418    0.840371   -0.120902
C     -3.446157   -0.268596   -0.169702
C     -0.550117   -0.612799    0.003329
C     -1.173336    0.734962    0.368594
O      7.127370    0.652358    0.617795
H     -6.106755   -1.701723   -1.825399
H     -7.203080   -2.220219   -0.550923
H     -5.500244   -2.611912   -0.359058
H     -6.778409   -0.906603    1.957002
H     -8.006597   -0.866637    0.677303
H     -7.295060    0.654503    1.281836
H      5.016361   -0.952129   -2.287255
H      6.659738   -0.704195   -1.682533
H      5.699915    0.747389   -1.996944
H      6.714368   -1.666036    0.651361
H      5.649347   -2.476587   -0.613065
H      5.041008   -2.225238    1.032431
H      3.557965    2.359296   -1.604495
H      1.927337    1.729998   -1.840725
H      3.321218    0.743304   -2.291087
H     -2.857805    0.792047   -2.006080
H     -4.144918   -0.388427   -2.159790
H     -4.487003    1.225218   -1.397907
H     -0.196821   -2.539502    0.780992
H      0.358510   -1.201667    1.918909
H     -1.356939   -1.653153    1.774234
H     -1.701982    2.513853   -0.813719
H      0.006496    2.424887   -0.396944
H     -0.555714    1.302397   -1.629133
H     -5.521184    1.708404    0.870358
H     -4.800778    0.982558    2.410237
H      1.134055   -2.530218   -0.965351
H      1.770446   -1.975660    0.675048
H      3.558170   -2.457350   -0.810574
H      3.019159   -1.251309   -2.006008
H     -3.022223    2.342413    1.859088
H     -3.502048    2.410329    0.131327
H      1.638573    2.075007    1.754035
H      5.566591    2.655469    1.137842
H      5.317125    2.332805   -0.586287
H      3.602898    1.648227    1.832709
H      3.200752    2.855204    0.538157
H     -0.760413    2.206788    1.830256
H     -0.555608    0.523509    2.476600
H     -2.751929   -2.266778    0.420512
H     -3.330698   -2.164526   -1.250043
H     -1.427470   -0.892319   -1.981115
H     -0.967378   -2.366879   -1.102164
H     -6.202325    0.341646   -0.747489
H     -4.619905   -1.082821    1.476086
H      0.826731   -0.191366   -1.640912
H      3.498011   -0.860602    1.002907
H     -2.575864   -0.030291    1.739555
H      5.484343    0.316345    1.727525
H      7.384976    1.568610    0.399812
