81

C     -6.114611    1.552422   -0.702851
C     -7.055578    0.067226    0.992703
C      5.752225    0.839546   -1.375516
C      5.697462    1.893536    0.813670
C      2.955896   -0.546438   -1.974786
C     -3.667239   -0.781147   -1.490792
C     -0.709065    1.638569    1.156926
C     -0.812565   -1.679873   -0.771000
C     -4.646906   -1.400431    1.211060
C      1.559391    1.970088   -0.115817
C      3.011634    1.920052   -0.494374
C     -3.211198   -1.889035    1.079899
C      1.130662   -1.241638    0.976810
C      4.633286   -1.464414    1.141944
C      3.752621   -1.764451   -0.056175
C     -0.257525   -1.160576    1.528549
C     -2.923614    1.352398   -0.640186
C     -1.481466    1.251965   -1.097793
C     -5.965966    0.183523   -0.075626
C     -4.668272    0.019709    0.618690
C      1.637710   -0.419346    0.081923
C      0.820028    0.693437   -0.457634
C      3.702103    0.733789    0.072844
C     -2.501324   -0.631184    0.734340
C      5.724750   -0.529672    0.635598
C      5.171652    0.709570   -0.011811
C      3.021145   -0.508380   -0.466715
C     -3.443482    0.017384   -0.248902
C     -0.584998    0.684388    0.011106
C     -1.106966   -0.713072    0.334943
O      6.491333   -1.286541   -0.262650
H     -5.925762    1.589621   -1.774126
H     -7.171740    1.891494   -0.566101
H     -5.473255    2.238749   -0.111216
H     -7.477577   -0.943685    1.042717
H     -7.874838    0.776193    0.824154
H     -6.645955    0.291440    2.006839
H      6.144921   -0.127847   -1.770350
H      5.075019    1.251154   -2.137086
H      6.651899    1.522842   -1.378179
H      5.912433    2.765008    0.193593
H      6.633636    1.615854    1.349784
H      4.965096    2.147912    1.629977
H      2.628385    0.361746   -2.460992
H      2.201126   -1.339088   -2.226607
H      3.935879   -0.847547   -2.368029
H     -3.960074   -1.832847   -1.321547
H     -4.519766   -0.321748   -2.035501
H     -2.803594   -0.688233   -2.188399
H     -1.717017    1.811370    1.539674
H     -0.047925    1.454665    1.998918
H     -0.420395    2.646588    0.726322
H     -0.502321   -1.141205   -1.690374
H      0.054898   -2.364979   -0.540676
H     -1.656304   -2.381099   -0.937354
H     -4.956564   -1.351691    2.292698
H     -5.354179   -2.058578    0.706093
H      1.089735    2.783566   -0.704259
H      1.540119    2.202442    0.969748
H      3.126966    2.103625   -1.556657
H      3.479921    2.822633    0.006481
H     -2.823224   -2.221483    2.080493
H     -3.195621   -2.692157    0.353728
H      1.732785   -2.049701    1.371962
H      5.126155   -2.402277    1.439085
H      4.101266   -1.023587    1.982950
H      3.116560   -2.650764    0.062146
H      4.491387   -2.069963   -0.862675
H     -0.644310   -2.169239    1.796642
H     -0.356581   -0.518288    2.395163
H     -3.081898    2.159967    0.071579
H     -3.489606    1.659079   -1.571206
H     -1.357619    0.739500   -2.046745
H     -1.134923    2.315325   -1.252774
H     -6.193917   -0.627309   -0.805738
H     -4.601577    0.718330    1.453020
H      0.821157    0.614588   -1.564116
H      3.445948    0.731013    1.178493
H     -2.572269   -0.004369    1.675037
H      6.378842   -0.322274    1.505295
H      7.393551   -1.476162    0.069738
