37

C     -0.762946    2.827423   -0.804944
C      3.504599   -0.862029    1.079744
C     -0.271305   -1.157606    1.445775
C     -2.929253    0.023038    0.739099
C     -2.645839    1.360796    0.172617
C      1.389195   -1.735707   -0.838690
C     -2.239344   -1.101305   -0.003874
C     -0.104539   -1.837351   -0.963194
C     -1.252397    1.471871   -0.330653
C      2.764081   -0.050048    0.375858
C      1.942321   -0.362447   -0.840679
C     -0.377231    0.482798   -0.412867
C      0.993231    0.762891   -0.953002
C      2.560479    1.376369    0.609450
C     -0.734929   -0.916793    0.026445
O      3.119214    2.095172    1.469883
O      1.619285    1.827025   -0.301528
H     -0.344514    3.407951    0.051775
H     -0.085330    2.755932   -1.653860
H     -1.662602    3.374816   -1.153351
H      3.596494   -1.906299    0.828365
H      4.047734   -0.503877    1.938405
H      0.364046   -2.057577    1.499430
H     -1.155391   -1.237341    2.128468
H      0.288233   -0.269080    1.845546
H     -4.029803   -0.171379    0.629251
H     -2.722384    0.029632    1.814936
H     -3.378245    1.650195   -0.641282
H     -2.800276    2.142249    0.948124
H      1.761924   -2.312036    0.056386
H      1.795551   -2.339122   -1.706217
H     -2.648268   -1.145952   -1.025856
H     -2.464894   -2.040179    0.541846
H     -0.360818   -1.441912   -1.986928
H     -0.399874   -2.889244   -0.851443
H      2.698756   -0.289434   -1.685271
H      0.925040    1.038559   -2.047762
