97

C      9.482557   -1.247790    0.739788
C      9.096527    1.247611   -0.552788
C      3.926177   -0.628123    2.123602
C      4.135971    1.806942    2.040047
C     -7.097635    0.012257   -0.903174
C     -6.556390    2.241080   -0.099483
C     -4.708780   -1.932900   -0.152110
C     -1.942498   -1.106005   -1.692032
C     -0.866082    1.662760    0.701616
C      8.135705   -0.684958    0.483595
C     -0.602416   -1.541326    1.141872
C     -2.069133   -1.741755    1.139333
C     -4.360089    0.778038   -1.381310
C     -6.189384   -0.744185    2.168299
C     -4.701789   -0.828575    2.013006
C     -2.869392    1.074167   -1.326632
C      2.029993    0.716455    1.318870
C      0.005617    0.903632   -1.452325
C      1.690233   -2.052653   -1.195220
C      7.921912    0.470199   -0.113773
C      0.011934   -0.563442    0.537658
C      1.498246   -0.462759    0.608261
C     -4.815462    0.566218    0.019640
C     -2.756821   -0.540680    0.606019
C     -6.794176    0.474483    1.538344
C      1.318930    0.320906   -1.763359
C      3.478227   -0.474797   -0.920233
C      4.118363    0.553828   -0.050515
C      6.540709    0.948456   -0.324752
C      3.541358    0.603297    1.342996
C     -6.294397    0.746859    0.146709
C     -4.263498   -0.705328    0.551489
C     -2.115037   -0.032152   -0.644846
C     -0.733139    0.473852   -0.243983
C      1.977563   -0.587492   -0.797716
O      2.394801   -2.910176   -0.337212
O     -8.173194    0.281932    1.467545
O      2.252156    1.319526   -2.187149
O      3.802728   -0.208985   -2.243902
O      6.296972    2.033400   -0.884227
O      5.489441    0.180840    0.105374
H     10.253239   -0.869276    0.045601
H      9.805053   -1.031606    1.783674
H      9.494862   -2.365455    0.659016
H      9.527465    0.763122   -1.469816
H      9.923558    1.176161    0.207743
H      8.854774    2.298805   -0.720606
H      3.073512   -0.940278    2.771376
H      4.244510   -1.468979    1.487562
H      4.767635   -0.424275    2.832827
H      4.317600    2.591055    1.249077
H      3.457640    2.267416    2.773075
H      5.122966    1.555149    2.472750
H     -6.441816   -0.464648   -1.670561
H     -7.783262   -0.741517   -0.440016
H     -7.767048    0.688722   -1.474050
H     -6.563692    2.481030   -1.161096
H     -5.704333    2.783834    0.403066
H     -7.462019    2.553541    0.450665
H     -4.587091   -1.947637   -1.233553
H     -4.277284   -2.828254    0.355111
H     -5.819338   -2.033115    0.033646
H     -1.996158   -2.137352   -1.305826
H     -2.738830   -1.056488   -2.472611
H     -0.992991   -1.052724   -2.254963
H     -0.302823    2.551722    0.284633
H     -0.437957    1.476402    1.703560
H     -1.886764    2.007691    0.860684
H      7.292165   -1.291527    0.824085
H      0.032090   -2.269038    1.694745
H     -2.261657   -2.692006    0.600258
H     -2.330905   -1.925903    2.226597
H     -4.479007   -0.084515   -2.052224
H     -4.853457    1.635637   -1.883118
H     -6.393578   -0.683438    3.261492
H     -6.731280   -1.646114    1.815240
H     -4.388143   -1.835860    2.365461
H     -4.216140   -0.087024    2.651707
H     -2.568911    1.089823   -2.419091
H     -2.695009    2.079709   -0.970605
H      1.800077    1.699451    0.905658
H      1.717359    0.702754    2.383712
H     -0.634010    0.888992   -2.386395
H      0.187333    2.030492   -1.347058
H      0.615961   -2.242994   -1.000977
H      1.918153   -2.222694   -2.245219
H      1.899069   -1.369754    1.150144
H     -4.350123    1.397378    0.632778
H     -2.615256    0.255796    1.396932
H     -6.625337    1.350242    2.200689
H      1.214402   -0.280281   -2.724519
H      3.912873   -1.460312   -0.654930
H      4.110382    1.528818   -0.558389
H      2.945897   -3.485661   -0.923006
H     -8.645964    0.976266    0.975321
H      2.079559    2.156367   -1.703406
H      4.745242   -0.470308   -2.454930
