42

C      4.007636    0.034800   -0.470382
C      2.620418    0.297640    1.505919
C     -2.093739    2.408089   -0.000461
C     -1.613413   -0.762713   -1.588264
C     -3.341719   -0.756962    0.679759
C     -2.996767    0.599967    1.304743
C      1.377390   -1.247675   -0.808132
C     -2.101073   -1.579520    0.661997
C      0.168903   -1.783616   -0.131097
C      2.737631    0.657001    0.084639
C     -1.897422    1.232695    0.516798
C      1.557300    0.218633   -0.781307
C     -0.661671    0.465445    0.375123
C      0.343981    1.053505   -0.547725
C     -1.039390   -0.900031   -0.217854
O      0.773631    2.325165   -0.142759
H      4.890471    0.680256   -0.286050
H      4.192155   -0.919082    0.080865
H      3.891237   -0.244247   -1.536155
H      1.948876   -0.508196    1.772327
H      2.295348    1.217951    2.075304
H      3.617369    0.042611    1.974815
H     -1.362851    2.938906   -0.581218
H     -3.046101    2.954803    0.123715
H     -2.124802    0.192420   -1.761915
H     -2.372801   -1.564307   -1.767922
H     -0.801860   -0.951836   -2.323896
H     -3.722609   -0.620061   -0.349974
H     -4.083276   -1.232941    1.331768
H     -3.883003    1.235953    1.399611
H     -2.552767    0.359966    2.303214
H      2.275571   -1.710875   -0.300426
H      1.412248   -1.687946   -1.847270
H     -1.695991   -1.692778    1.695564
H     -2.280121   -2.563556    0.189734
H      0.309991   -2.045350    0.939712
H     -0.134388   -2.762945   -0.612515
H      2.844138    1.757432   -0.078251
H      1.915570    0.508555   -1.822173
H     -0.282475    0.290992    1.404172
H     -0.172501    1.213660   -1.524242
H      1.080876    2.848190   -0.939794
