42

C      3.410121    1.314621    0.432734
C      3.842272   -1.062403    0.149045
C     -1.421078    2.755240    0.123583
C     -1.481547   -0.870105    1.544566
C     -3.522069   -0.044581   -0.736734
C     -3.214433    1.090512    0.203366
C      1.106051   -1.538782   -0.444147
C     -2.592373   -1.197475   -0.601885
C     -0.306818   -1.962027   -0.286704
C      2.911757    0.054374   -0.192727
C     -1.813024    1.502186   -0.031854
C      1.476599   -0.273900    0.243124
C     -0.829148    0.481381   -0.453784
C      0.560747    0.875862   -0.042367
C     -1.261559   -0.846049    0.047702
O      1.103516    1.635548   -1.078040
H      4.458289    1.200373    0.794087
H      2.820308    1.645472    1.313578
H      3.460949    2.139484   -0.337305
H      4.881380   -0.676454    0.051907
H      3.715538   -1.957537   -0.483685
H      3.712826   -1.298317    1.237036
H     -2.113406    3.551297    0.434224
H     -0.403911    3.081362   -0.043224
H     -1.324262    0.123872    2.016170
H     -0.764955   -1.584334    2.047557
H     -2.482444   -1.227885    1.832712
H     -4.556150   -0.385358   -0.514038
H     -3.557658    0.360699   -1.772886
H     -3.462817    0.878024    1.247205
H     -3.892699    1.934850   -0.118045
H      1.419613   -1.443067   -1.521470
H      1.756842   -2.350051   -0.037279
H     -3.086456   -2.031873   -0.055415
H     -2.376206   -1.587483   -1.639319
H     -0.401561   -2.762831    0.494336
H     -0.627292   -2.450300   -1.234595
H      2.859489    0.155084   -1.302346
H      1.550302   -0.429635    1.351765
H     -0.890517    0.446820   -1.581204
H      0.538813    1.528047    0.860663
H      0.796975    1.225340   -1.916308
