97

C      9.634756   -2.721271   -0.622131
C      8.466976   -0.261517   -0.173333
C      4.276712   -0.605511    2.470667
C      4.064517    1.728806    1.815473
C     -6.387569   -1.666621   -1.507762
C     -7.160577    0.350255   -0.403776
C     -4.828395    1.450837    1.439682
C     -2.072683    2.273700   -0.269326
C     -0.853063   -1.329684   -0.468735
C      8.156878   -2.628478   -0.538132
C     -0.540341    0.881094    1.769162
C     -1.956293    0.573096    2.094238
C     -4.437344    0.550888   -1.395091
C     -5.254361   -2.065804    1.565007
C     -4.541683   -0.863039    2.115887
C     -2.942857    0.482056   -1.601983
C      2.176609    0.120835    1.453849
C     -0.156336    0.527536   -1.837743
C      2.042828    2.666787   -1.343769
C      7.607940   -1.439068   -0.321789
C      0.044262    0.730912    0.587388
C      1.500460    1.112068    0.499310
C     -4.758287   -0.384192   -0.262493
C     -2.715156    0.156008    0.889139
C     -6.546653   -1.624465    0.915717
C      1.308287    0.429524   -1.855051
C      3.514188    0.792096   -0.993840
C      4.085623   -0.074286    0.060559
C      6.167917   -1.346733   -0.239996
C      3.674455    0.331751    1.456398
C     -6.180452   -0.779930   -0.266573
C     -4.214800    0.171061    1.028899
C     -2.167049    0.765278   -0.347488
C     -0.744332    0.205832   -0.529581
C      2.075252    1.218992   -0.825521
O      0.789387    3.196103   -1.434390
O     -7.365603   -1.000124    1.828626
O      1.843620   -0.856652   -1.795850
O      3.731296    0.162650   -2.225719
O      5.429699   -2.365890   -0.369343
O      5.496349   -0.145186   -0.015804
H     10.119593   -2.368631    0.327267
H      9.915906   -3.781184   -0.746706
H     10.012686   -2.151268   -1.496373
H      8.791145    0.051343   -1.187853
H      9.315437   -0.392773    0.509102
H      7.851130    0.590561    0.228780
H      5.378504   -0.499236    2.437276
H      3.976387   -0.210842    3.480236
H      3.911966   -1.630354    2.407854
H      4.950811    1.735065    2.513833
H      3.265612    2.275551    2.359102
H      4.403859    2.266179    0.909421
H     -5.497235   -2.317001   -1.662490
H     -6.599028   -1.032324   -2.390379
H     -7.244146   -2.354499   -1.346013
H     -6.774418    1.208277   -0.985819
H     -8.078939    0.012783   -0.971224
H     -7.565040    0.654156    0.595658
H     -4.186530    1.996702    2.130544
H     -5.231085    2.081968    0.626331
H     -5.748053    1.209712    2.058139
H     -2.971517    2.723880    0.199121
H     -1.911888    2.700197   -1.305966
H     -1.219693    2.652461    0.315243
H     -0.633785   -1.693428    0.554989
H     -0.097896   -1.826696   -1.111843
H     -1.809367   -1.701343   -0.884821
H      7.549974   -3.519166   -0.652583
H      0.093322    1.280193    2.591120
H     -1.888643   -0.249492    2.870444
H     -2.338331    1.433387    2.653809
H     -4.787645    1.573086   -1.283286
H     -4.914048    0.157513   -2.323787
H     -4.652145   -2.713345    0.933624
H     -5.553504   -2.675325    2.455818
H     -3.655019   -1.220903    2.641160
H     -5.214841   -0.429734    2.899183
H     -2.722471    1.307920   -2.346443
H     -2.701655   -0.435299   -2.127969
H      1.851838    0.312597    2.494881
H      2.004704   -0.921060    1.124228
H     -0.528883   -0.231885   -2.607852
H     -0.481268    1.488080   -2.285683
H      2.600151    3.264664   -0.564125
H      2.652161    2.762287   -2.263075
H      1.660500    2.095604    1.042173
H     -4.150343   -1.318098   -0.463494
H     -2.506476   -0.960164    0.824726
H     -7.074529   -2.579860    0.622929
H      1.666905    0.803628   -2.880573
H      4.188809    1.701059   -1.035741
H      3.700979   -1.111861   -0.088224
H      0.840237    4.181689   -1.321974
H     -8.314906   -0.982473    1.569026
H      1.750118   -1.333846   -2.669701
H      4.336419   -0.598167   -2.172480
