29

C      2.792972    0.903356    0.164800
C      2.015051   -1.337934    0.859198
C     -3.030534    0.579227   -0.332019
C     -0.151590    1.764402   -0.119765
C     -0.108251   -0.534303   -1.106424
C      1.642874    0.095662    0.733671
C     -1.886734   -0.115055    0.367373
C     -0.803605    0.803760    0.795300
C     -1.276347   -1.202194   -0.459241
C      0.402446    0.387391   -0.041618
O     -0.789952   -2.175832    0.425926
H      2.839593    0.773213   -0.923081
H      3.722017    0.486391    0.625462
H      2.709440    1.958559    0.452567
H      3.122585   -1.356576    1.093586
H      1.908354   -1.957433   -0.031137
H      1.559468   -1.782430    1.783766
H     -3.595491    1.182619    0.400929
H     -2.701703    1.187874   -1.189898
H     -3.725523   -0.209790   -0.694430
H      0.472515    2.548336    0.335909
H     -0.666613    2.092798   -1.036740
H      0.598570   -1.306324   -1.435449
H     -0.478092    0.052630   -1.995574
H      1.516701    0.487610    1.785510
H     -2.326619   -0.595738    1.278020
H     -0.642729    0.959068    1.888759
H     -1.986601   -1.646294   -1.185546
H     -1.132202   -2.042999    1.331042
