56

C     -3.499888   -5.058343    0.282784
C      0.299976    5.315168    0.059716
C     -4.634821    2.699719    0.580805
C     -4.448880   -0.856760   -0.910179
C      5.541811   -0.052526    0.015125
C      4.882807   -1.369962    0.370099
C      0.032038   -2.911105   -0.081351
C     -1.143257   -3.609669    0.039828
C      4.740939    0.955148    0.783467
C      2.548004   -1.550774   -0.356835
C      0.167149    2.557421   -0.020257
C     -2.278278    1.262726    0.235934
C      2.612549    1.065264   -0.316625
C      3.488501   -0.941778    0.696988
C      0.028035   -1.543109   -0.077675
C      1.245144   -0.925170   -0.200520
C      0.108595    1.194992   -0.062551
C     -1.131124    0.540341    0.064465
C      1.252352    0.479586   -0.190057
C     -2.321281   -2.932755    0.161447
C     -1.001086    3.286019    0.150394
C     -2.200752    2.668541    0.277179
C     -1.193845   -0.847098    0.051728
C     -2.361343   -1.524572    0.165772
N      3.398613    0.462534    0.752718
O     -3.494330   -3.652289    0.282373
O     -0.943128    4.661261    0.191792
O     -3.391371    3.359672    0.450157
O     -3.613228   -0.965644    0.280339
H     -4.520374   -5.412358    0.531740
H     -3.240890   -5.461437   -0.705024
H     -2.728976   -5.458117    0.996215
H      0.135967    6.417840   -0.028717
H      0.906666    5.134225    0.966251
H      0.814628    4.953243   -0.856360
H     -4.573509    1.989121    1.418397
H     -5.386808    3.477658    0.832407
H     -4.882732    2.192765   -0.363309
H     -5.267717   -0.172277   -0.609035
H     -3.813076   -0.359391   -1.668508
H     -4.797830   -1.835310   -1.236269
H      6.606234   -0.093175    0.344945
H      5.484487    0.178543   -1.051147
H      5.374660   -1.867582    1.228292
H      4.902729   -2.023635   -0.510838
H      0.984892   -3.422546   -0.180863
H     -1.081161   -4.693637    0.033447
H      5.096924    0.998781    1.843259
H      4.846896    1.952198    0.307684
H      2.661335   -2.607020   -0.431812
H      2.970001   -1.155855   -1.337946
H      1.101268    3.075393   -0.121719
H     -3.231497    0.838130    0.395483
H      2.664712    2.147637   -0.119860
H      3.103055    0.820766   -1.289467
H      3.180215   -1.380795    1.685065
