29

C      1.962672   -1.707282   -0.414562
C      2.267845   -0.065782    1.352855
C     -2.862505    0.562056    0.911278
C      0.500365    1.865408   -0.123560
C     -0.216834   -0.131466   -1.618643
C      1.890262   -0.237839   -0.097306
C     -1.739327    0.705043   -0.069326
C     -0.389599    0.848510    0.570248
C     -1.555030   -0.476030   -0.966262
C      0.571983    0.376582   -0.445479
O     -1.379849   -1.641564   -0.249816
H      1.902194   -1.947712   -1.474080
H      2.984938   -2.046350   -0.075519
H      1.254220   -2.266656    0.231358
H      3.220992   -0.647787    1.494268
H      1.544313   -0.493816    2.046848
H      2.519969    0.982352    1.600154
H     -3.813181    0.669177    0.344796
H     -2.897031   -0.391186    1.439496
H     -2.819960    1.443105    1.591944
H      0.051775    2.541438   -0.873615
H      1.281266    2.320827    0.479426
H      0.189181   -1.024132   -2.084353
H     -0.390296    0.696138   -2.357386
H      2.674432    0.268955   -0.697149
H     -1.992098    1.583559   -0.727215
H     -0.253090    0.669859    1.650402
H     -2.358577   -0.556416   -1.725777
H     -2.149031   -1.898991    0.286976
