27

C     -2.163420    1.026697    1.037314
C     -2.593972   -0.739905   -0.671683
C      3.199283    0.001407    0.873521
C      0.154720   -1.487445   -0.790309
C      0.128713    1.093278   -0.887080
C     -1.666083   -0.242396    0.417477
C      2.076943   -0.001846   -0.102936
C      0.886188   -0.817651    0.354339
C      1.518329    1.328232   -0.401829
C     -0.304289   -0.153728   -0.167656
O      2.081397    2.381388   -0.275025
H     -3.206922    0.807233    1.410701
H     -1.583059    1.263815    1.949312
H     -2.272487    1.865496    0.341625
H     -2.372542   -0.220084   -1.629081
H     -2.324576   -1.822313   -0.847129
H     -3.660443   -0.669344   -0.384097
H      3.910870   -0.828362    0.666763
H      2.887507    0.026548    1.936525
H      3.794079    0.940792    0.717807
H     -0.363069   -2.405093   -0.502856
H      0.548253   -1.394586   -1.820706
H      0.126833    0.857598   -1.975146
H     -0.536825    1.939785   -0.725532
H     -1.678830   -1.023654    1.214900
H      2.484223   -0.401975   -1.076415
H      0.929180   -1.323886    1.337197
