29

C      2.017105    0.676680    1.284688
C      2.887303   -0.553343   -0.661703
C     -2.953007   -0.282197    0.908726
C      0.060714   -1.622927    0.255652
C     -0.375752    0.062817   -1.560557
C      1.755543    0.313139   -0.168814
C     -1.659380    0.332266    0.433012
C     -0.443633   -0.382633    0.823912
C     -1.703554    0.509217   -1.047645
C      0.441438   -0.362170   -0.374375
O     -1.859775    1.863992   -1.416402
H      1.298110    1.444942    1.628150
H      3.029329    1.158270    1.297251
H      2.066998   -0.211720    1.934971
H      3.176554   -1.243641    0.157611
H      3.748199    0.108641   -0.885003
H      2.532256   -1.100499   -1.549095
H     -3.074468   -0.061168    2.001537
H     -3.775691    0.301772    0.412812
H     -3.067295   -1.335540    0.664974
H      0.832200   -2.183079    0.786765
H     -0.645405   -2.300121   -0.306133
H     -0.541281   -0.841678   -2.215719
H      0.142032    0.801268   -2.199345
H      1.748268    1.271823   -0.732759
H     -1.630085    1.367644    0.884142
H     -0.023492   -0.095739    1.832460
H     -2.568917   -0.015648   -1.517212
H     -1.414314    2.379631   -0.671900
