29

C      2.239701   -0.802679   -0.939766
C      2.857863    1.021787    0.545516
C     -3.064176    0.061234   -0.939610
C     -0.178061    1.580373    0.929108
C      0.052680   -0.968811    0.798628
C      1.767788    0.526541   -0.388844
C     -1.928551    0.001552    0.016255
C     -0.803491    0.957118   -0.304572
C     -1.193779   -1.338114   -0.017050
C      0.442840    0.396855    0.326058
O     -1.914091   -2.351216    0.563945
H      2.663971   -1.459157   -0.126920
H      3.139701   -0.559651   -1.577640
H      1.483922   -1.314600   -1.546900
H      3.259534    0.152862    1.123806
H      2.506627    1.834646    1.211022
H      3.708816    1.397395   -0.068445
H     -3.863875    0.739016   -0.526222
H     -2.814053    0.440125   -1.943442
H     -3.526636   -0.948581   -1.009299
H     -0.730208    1.509960    1.898703
H      0.243870    2.583088    0.744611
H      0.788501   -1.750709    0.620957
H     -0.295016   -0.922373    1.852216
H      1.675805    1.221738   -1.254778
H     -2.314886    0.125524    1.048845
H     -0.767626    1.481464   -1.260082
H     -0.936581   -1.535066   -1.067192
H     -2.500590   -2.080319    1.291088
