26

C     -2.699240   -0.397076    1.416651
C     -2.533573   -0.140731   -1.000274
C      2.733388   -1.670994   -0.308116
C      1.257076    1.856598    0.153778
C      2.156607    0.704677    0.009744
C     -0.192482    1.515272   -0.011019
C      0.333713   -0.891015   -0.240218
C     -1.931204   -0.149520    0.346391
C      1.762076   -0.536022   -0.167627
C     -0.491971    0.113831    0.500808
H     -3.759181   -0.590453    1.296575
H     -2.290306   -0.411333    2.420347
H     -2.246358   -1.078222   -1.524608
H     -3.646951   -0.172169   -0.914343
H     -2.245390    0.770367   -1.541713
H      3.748750   -1.374386    0.004271
H      2.730108   -1.976845   -1.355065
H      2.321021   -2.497094    0.328933
H      1.430270    2.305040    1.155264
H      1.544594    2.632071   -0.597138
H      3.240432    0.867722    0.049740
H     -0.784903    2.221277    0.616230
H     -0.442007    1.607376   -1.085075
H      0.118264   -1.893658    0.206245
H      0.058174   -0.914980   -1.322756
H     -0.170905    0.100267    1.562977
