42

C      2.632262   -0.307495   -1.943053
C      3.825076   -0.724038    0.221410
C     -1.828416    2.490463    1.306515
C     -1.684814   -2.551030   -0.782001
C      0.591155    2.020392    1.213550
C      1.671070    1.458127    0.281163
C     -3.108876   -0.609756   -0.233681
C     -2.227263    0.435976   -0.914866
C      2.519899   -0.760425   -0.513624
C     -0.706111    1.904611    0.467959
C      1.435090   -0.028326    0.239053
C      0.103021   -0.343803   -0.323628
C     -0.965765   -0.680114    0.719025
C     -2.091044   -1.574861    0.296084
C     -0.995560    0.549138   -0.048438
O     -2.559810   -2.326156    1.372820
H      1.696669   -0.565153   -2.474899
H      2.860093    0.764233   -2.042888
H      3.430926   -0.924450   -2.414895
H      4.334374   -1.728006    0.253915
H      4.499356    0.009273   -0.238898
H      3.605169   -0.408512    1.278693
H     -1.381061    3.354506    1.875360
H     -2.268526    1.769541    1.996349
H     -2.598022    2.955541    0.646940
H     -2.559758   -3.248737   -0.912594
H     -0.848986   -3.193093   -0.444036
H     -1.528751   -2.079920   -1.758286
H      0.587986    1.509717    2.186939
H      0.842998    3.105793    1.318789
H      2.677821    1.723400    0.625420
H      1.438853    1.876260   -0.722753
H     -3.830266   -1.058192   -0.922509
H     -3.619065   -0.151821    0.640177
H     -1.925787    0.049519   -1.889019
H     -2.799158    1.381016   -0.945691
H      2.197128   -1.837303   -0.548746
H     -0.617725    2.592994   -0.424776
H      1.515302   -0.383881    1.308704
H      0.084546   -0.916938   -1.275332
H     -0.658080   -0.765005    1.776730
H     -1.745948   -2.783487    1.749020
