38

C      3.377614    1.999749    1.482601
C     -1.826884    0.738206    2.103501
C     -0.047920   -1.883743    0.411490
C     -2.769236   -1.381428   -0.482843
C     -1.576426   -1.262002   -1.390176
C      0.599269    0.941053    0.713334
C      0.815530   -0.771258   -1.589206
C      3.019830    1.203853    0.497825
C     -1.837861    0.427809    0.811341
C      1.725686    1.152378   -0.220812
C     -0.621714    0.512616   -0.028012
C     -3.094883   -0.023572    0.153050
C      1.915388    0.139348   -1.281862
C      3.879761    0.186070   -0.082896
C     -0.322348   -0.833986   -0.642065
O     -3.380474    0.861882   -0.860631
O      5.144749    0.066787    0.059467
O      3.041316   -0.631245   -0.825581
H      2.640372    2.723594    1.830646
H      4.346367    1.967628    1.949502
H     -2.743550    0.659708    2.674949
H     -0.905349    1.066171    2.574817
H     -0.342697   -1.537309    1.426382
H      1.040987   -2.171067    0.384427
H     -0.605083   -2.822664    0.228542
H     -3.634571   -1.644907   -1.093466
H     -2.627695   -2.164121    0.276653
H     -1.365204   -2.274204   -1.788481
H     -1.810199   -0.565943   -2.220678
H      0.346991    1.923165    1.212676
H      0.881585    0.265426    1.540344
H      1.181678   -1.830324   -1.743243
H      0.393152   -0.498068   -2.602510
H      1.595221    2.176032   -0.682952
H     -0.807194    1.225185   -0.843451
H     -3.917962   -0.167630    0.876294
H      2.309458    0.664174   -2.196653
H     -4.017701    1.562638   -0.632323
