42

C     -1.422033    2.849059   -0.383010
C      3.745714   -0.911551    0.183221
C      3.338453    1.284225   -0.730925
C     -2.103164   -0.918178   -1.559153
C     -3.492492   -0.139677    0.782803
C     -2.996412    1.188211    0.351186
C      0.977764   -1.546218    0.236838
C     -2.433774   -1.187199    0.861018
C     -0.388202   -2.015660   -0.217192
C      0.385620    0.534210   -0.894681
C     -1.739223    1.457476    0.028027
C      1.487534   -0.415243   -0.633079
C     -0.737469    0.379857    0.092212
C      2.692380    0.167981    0.039744
C     -1.421252   -0.942216   -0.209619
O      2.401978    0.634022    1.316884
H     -0.395398    3.151600   -0.182992
H     -1.713617    2.962884   -1.455390
H     -2.076953    3.591306    0.161022
H      3.445548   -1.746189    0.806480
H      4.712648   -0.459142    0.520887
H      3.953582   -1.324612   -0.846996
H      4.267167    1.560310   -0.187671
H      2.725533    2.201622   -0.786902
H      3.663284    0.906454   -1.721080
H     -1.458844   -1.399604   -2.322950
H     -3.013214   -1.573228   -1.456499
H     -2.466966    0.065410   -1.854266
H     -3.953571   -0.060238    1.806290
H     -4.290275   -0.453268    0.102614
H     -3.769965    1.977398    0.312352
H      1.648088   -2.451199    0.148946
H      0.992552   -1.286990    1.313581
H     -2.924038   -2.176878    0.697835
H     -1.903567   -1.171456    1.837210
H     -0.686015   -2.860234    0.427306
H     -0.232387   -2.441949   -1.251457
H      0.677052    1.594032   -0.952012
H     -0.050464    0.287561   -1.906217
H      1.842353   -0.900021   -1.583692
H     -0.385414    0.316232    1.140511
H      3.097457    1.271103    1.611055
