48

C     -0.501608    1.965360   -2.394869
C     -1.077155   -2.849737   -1.660472
C     -2.224368    2.233906   -0.446534
C     -3.419751    2.495558    0.172869
C      0.803984   -1.235062    1.010959
C      0.429293   -2.268388    0.015548
C      3.214485   -0.960553    1.025804
C      3.245676    1.414674   -0.211610
C     -1.861903   -1.517069    0.134777
C      6.579904    0.249178    0.585928
C     -5.440379    0.074617    1.931736
C     -0.345080    0.938007   -1.230012
C      1.995986   -0.426418    0.651995
C     -1.643441    0.949648   -0.509699
C      1.992418    0.793428    0.013738
C     -2.282136   -0.096017    0.065155
C     -4.059417    1.420707    0.753842
C      4.431306   -0.350362    0.802154
C      4.444183    0.867897    0.167561
C      0.788922    1.487215   -0.455241
C     -3.516430    0.168566    0.705521
N     -0.774723   -1.849610   -0.670364
O      0.722515    2.728662   -0.151005
O     -5.270901    1.382462    1.443624
O      5.728199   -0.748388    1.110748
O      5.756907    1.257657    0.067059
O     -4.392635   -0.691442    1.375419
H     -1.549779    2.090363   -2.657620
H      0.147078    1.634271   -3.242796
H     -0.108114    2.952222   -2.084783
H     -1.416669   -3.777018   -1.161782
H     -1.748400   -2.507887   -2.458654
H     -0.104084   -3.106282   -2.158701
H     -1.744805    3.097041   -0.893695
H     -3.857047    3.483167    0.216280
H      1.016439   -1.782267    1.985484
H     -0.067354   -0.609042    1.284122
H      0.350663   -3.259625    0.454010
H      1.231407   -2.309302   -0.760107
H      3.239547   -1.940446    1.539160
H      3.255057    2.402561   -0.712315
H     -1.748699   -1.731972    1.221080
H     -2.728377   -2.192361   -0.161824
H      7.218240   -0.204742   -0.195330
H      7.251439    0.589484    1.389740
H     -5.355764    0.058595    3.030326
H     -6.425237   -0.281958    1.568785
H     -0.179394   -0.039299   -1.659185
