54

C     -0.431191    2.091241    0.257820
C     -6.748341   -0.991611   -0.883663
C      6.366015    1.510852    1.040619
C      2.369588    0.803431    4.728141
C     -3.134450   -4.006919   -1.309635
C     -3.016781    0.925681   -0.280701
C     -4.239147    0.291696   -0.476475
C      2.426125    0.023451   -1.841932
C      1.637668   -1.266333   -1.841245
C      3.914236    0.696796    0.066098
C      1.822986    0.322863    1.855342
C     -0.696520   -1.580883   -1.796996
C     -0.523707    0.865951   -0.536539
C      2.691666    0.303402   -0.400016
C     -1.877074    0.291615   -0.703053
C      1.648355    0.116298    0.476151
C     -1.939171   -0.945741   -1.308889
C     -4.298521   -0.937995   -1.077446
C      4.082255    0.898145    1.417483
C      3.046632    0.717362    2.342903
C      0.326140   -0.303266   -0.034791
C     -3.166779   -1.570548   -1.498125
N      0.461577   -1.278151   -1.045718
O     -5.529176   -1.557937   -1.267705
O      5.306117    1.297092    1.952477
O      3.282866    0.935625    3.671871
O     -3.198999   -2.834279   -2.116576
H     -0.381979    2.991236   -0.427880
H      0.569736    2.127653    0.785556
H     -1.171341    2.290486    1.025184
H     -7.596779   -1.502220   -1.393642
H     -6.926761   -1.072202    0.204235
H     -6.758140    0.077750   -1.209630
H      6.146796    2.316823    0.307849
H      7.258362    1.891509    1.619062
H      6.638124    0.602745    0.464772
H      2.811379    1.101001    5.704342
H      1.923870   -0.198699    4.747230
H      1.541657    1.549476    4.561951
H     -2.809247   -4.837731   -1.949622
H     -4.180084   -4.216307   -0.935422
H     -2.465235   -3.900196   -0.438100
H     -2.966413    1.876994    0.179806
H     -5.137625    0.809327   -0.142167
H      1.981579    0.847501   -2.387307
H      3.419297   -0.271031   -2.334459
H      2.329081   -2.048986   -1.432696
H      1.370138   -1.613853   -2.861929
H      4.722792    0.845479   -0.614433
H      0.986419    0.170098    2.521422
H     -0.865456   -2.690754   -1.722114
H     -0.568084   -1.354373   -2.905482
H     -0.174609    1.077722   -1.565950
H     -0.279844   -0.733810    0.810023
