40

C     -2.387722    1.715782    0.891150
C      3.761061    0.907704   -0.480225
C     -0.129653   -1.996277    1.092670
C     -2.983850   -1.906810    0.540087
C     -2.950777   -0.613709    1.317434
C      1.667361   -0.843861   -0.874253
C     -1.962833   -1.954504   -0.559198
C      0.400347   -1.583093   -1.248774
C      0.395543    0.819373    0.396064
C      2.453601    2.924535   -0.234331
C     -2.066251    0.392912    0.751400
C      2.578497    1.464030   -0.516630
C      1.374164    0.623066   -0.763344
C     -0.846858    0.115728    0.001216
C     -0.638998   -1.367430   -0.152855
O      1.900865    3.504938   -1.377170
H     -1.792798    2.473574    0.506293
H     -3.296079    1.920322    1.426963
H      4.614605    1.516216   -0.240526
H      3.917987   -0.130859   -0.674551
H      0.665121   -1.396204    1.579546
H      0.347711   -3.006593    0.888515
H     -0.945930   -2.241371    1.824431
H     -2.778771   -2.731886    1.246194
H     -3.984137   -2.115245    0.119851
H     -2.749655   -0.811635    2.410008
H     -3.991101   -0.210483    1.317876
H      2.021385   -1.207557    0.109441
H      2.457539   -1.038096   -1.653963
H     -1.859777   -2.959881   -0.997908
H     -2.343754   -1.300458   -1.399565
H      0.626539   -2.644092   -1.323620
H      0.044104   -1.123149   -2.209035
H      0.826904    0.583841    1.355159
H      0.167627    1.922291    0.407872
H      1.862617    3.129885    0.664307
H      3.461029    3.350263   -0.089602
H      0.871880    0.988445   -1.673877
H     -1.076554    0.466312   -1.067062
H      2.369010    4.363979   -1.534175
