28

C      3.014106   -0.449511    0.262712
C      2.169063   -0.392433   -1.005930
C     -1.909496   -1.077682    0.524891
C     -2.689982    0.145173    0.186881
C      1.092637    0.643000   -0.765187
C     -0.456335   -1.031510    0.199050
C     -1.856773    1.352589   -0.127357
C      0.218093    0.275077    0.420618
N     -0.676374    1.352145    0.636641
Cl     0.690278    0.000000    0.000000
H      4.039242   -0.746216   -0.080090
H      2.603356   -1.224575    0.929079
H      3.048798    0.560219    0.729480
H      1.722722   -1.366404   -1.231201
H      2.792048   -0.009200   -1.842469
H     -2.351597   -1.928887   -0.064031
H     -2.082228   -1.353016    1.587298
H     -3.362860   -0.014138   -0.703801
H     -3.373422    0.428094    1.015409
H      0.486626    0.679726   -1.708187
H      1.582846    1.607688   -0.642831
H      0.063450   -1.796083    0.842628
H     -0.280491   -1.377404   -0.847054
H     -2.426673    2.282586    0.075498
H     -1.626114    1.382902   -1.227294
H      0.922286    0.237019    1.303712
H     -0.662927    1.820840    1.531532
H     -0.690278    0.000000    0.000000
