40

C      2.887914   -0.322172   -1.375388
C      3.244428   -0.721484    1.079058
C     -1.172745   -0.447233    1.674779
C      1.780938    1.110641    0.253241
C     -2.572386   -2.068281   -0.913544
C      0.566701    1.148847   -0.637110
C     -0.071650   -0.209783   -0.570558
C     -0.421990    2.141060   -0.079527
C      0.977954   -1.085666    0.060716
C     -3.581531    0.193183   -0.531485
C     -2.918737    1.521808   -0.491005
C      2.280482   -0.314148    0.006540
C     -1.322469   -0.089733    0.218808
C     -2.501792   -0.805518   -0.331298
C     -1.682719    1.370345    0.066825
O      0.037035    2.703897    1.089368
O      1.095675   -2.320461   -0.546313
O     -4.772041    0.048344   -0.699293
O     -2.935761   -1.996333    0.445198
O     -2.658580    1.921307    0.870915
H      2.119279   -0.383996   -2.146047
H      3.450410    0.630906   -1.552077
H      3.622241   -1.135233   -1.473038
H      2.902766   -1.606802    1.623212
H      3.450494    0.127345    1.794210
H      4.234131   -0.906135    0.585330
H     -0.368774    0.088731    2.185204
H     -1.151097   -1.542319    1.793074
H     -2.130765   -0.115380    2.173239
H      1.557267    1.228866    1.311922
H      2.534868    1.857968   -0.026417
H     -1.678694   -2.721045   -1.109492
H     -3.422682   -2.345551   -1.570037
H      0.913824    1.406256   -1.655801
H     -0.241169   -0.555154   -1.606699
H     -0.528634    2.945873   -0.860822
H      0.758670   -1.251986    1.137012
H     -3.268175    2.326295   -1.160693
H     -0.605654    2.472755    1.810661
H      1.592969   -2.300016   -1.393600
