53

C      5.042634    1.135458    2.177895
C      3.205102    1.704866   -0.064520
C     -0.476387   -2.038969   -3.020205
C     -3.426013    1.094919   -0.511076
C      0.483271   -0.407662    1.350614
C      4.424285    0.159943    1.578891
C     -2.112136   -1.743152    1.538320
C      2.913530   -0.703524   -0.083223
C     -0.282096    0.404626   -2.643603
C      1.965839   -0.612762   -1.203291
C     -0.733816    1.112870   -1.362456
C     -3.013715   -0.640065    1.113893
C     -1.029967   -2.107411    0.603902
C     -2.037454    1.679299    1.362891
C      3.520460    0.357242    0.487581
C     -0.086679   -1.029599   -2.317584
C      0.658584   -1.273737   -1.002905
C     -1.274519    0.050629   -0.429678
C     -2.349668    0.529897    0.461806
C     -0.223199   -0.853917    0.135586
O     -3.245409    2.027324    2.008999
H      4.940187    2.157174    1.921629
H      5.732969    0.940735    3.017020
H      3.413244    1.707304   -1.185205
H      3.871442    2.468635    0.328333
H      2.171994    2.031505    0.113393
H     -1.005594   -1.872278   -3.953481
H     -0.286705   -3.046641   -2.698554
H     -3.364855    0.625894   -1.492341
H     -4.439050    0.892874   -0.104395
H     -3.309596    2.190922   -0.625662
H      0.821157    0.620273    1.402871
H      1.274252   -1.168591    1.588004
H     -0.168525   -0.523056    2.288093
H      4.604668   -0.873316    1.928933
H     -1.823309   -1.565593    2.594969
H     -2.780563   -2.665198    1.620697
H      3.186843   -1.674983    0.342703
H      0.615351    0.881940   -3.079076
H     -1.129584    0.472198   -3.353545
H      1.891779    0.442802   -1.552579
H      2.533364   -1.086026   -2.079238
H     -1.585638    1.787080   -1.616277
H      0.037768    1.749086   -0.922571
H     -3.719577   -1.089276    0.351317
H     -3.668609   -0.356528    1.962400
H     -0.324384   -2.788378    1.121004
H     -1.454017   -2.618488   -0.270985
H     -1.790971    2.558003    0.727950
H     -1.325942    1.503206    2.164553
H      0.787544   -2.384427   -0.901716
H     -1.835676   -0.648426   -1.145520
H     -3.792615    2.485298    1.325439
