39

C     -1.979000    0.307318   -1.603889
C     -2.585728    1.686215    0.305117
C      1.060991   -0.470602   -1.409038
C     -1.461459   -1.824066    0.900121
C      1.740977    1.859486   -0.135028
C      0.242573    1.886618   -0.249725
C     -2.399008   -0.735692    0.553229
C     -0.172880   -1.844976    0.178725
C      2.693088   -1.479706    0.726973
C      2.380660    0.853976    0.395890
C      1.685146   -0.371433    0.944649
C     -0.384948    0.657606    0.295634
C      3.780461    0.566696    0.604856
C     -1.795024    0.444825   -0.129390
C      0.502529   -0.533084    0.008779
O      4.732373    1.381643    0.564242
O      3.937465   -0.811374    0.871431
H     -1.592974   -0.645911   -2.019367
H     -1.641632    1.198461   -2.185378
H     -3.093647    0.265719   -1.787675
H     -2.006994    2.302514    1.017806
H     -3.516780    1.390440    0.847364
H     -2.894391    2.293673   -0.551301
H      0.592681    0.343901   -2.001412
H      2.145827   -0.281486   -1.427848
H      0.885324   -1.415060   -1.964392
H     -1.984532   -2.804972    0.692589
H     -1.259824   -1.868154    2.010569
H      2.244070    2.746481   -0.530334
H     -0.076630    2.777598    0.366191
H     -0.062006    2.138973   -1.286602
H     -3.241954   -1.107358   -0.100667
H     -2.908628   -0.398892    1.488873
H     -0.303811   -2.383244   -0.801809
H      0.535110   -2.512082    0.753579
H      2.621164   -1.901584   -0.284872
H      2.599627   -2.231129    1.536666
H      1.380152   -0.242181    1.984979
H     -0.398364    0.760839    1.420465
