24

C      1.257244    1.180326   -0.348373
C      0.180315    0.883790    0.653885
C      1.935323   -0.099346   -0.702948
C      0.252942   -0.608322    0.947411
C      1.455994   -1.141339    0.264129
C     -1.285135    0.502788   -1.293126
C     -1.106984   -0.796777   -1.102117
C     -1.212778    1.116137    0.058870
C     -1.051467   -1.102126    0.354299
C     -1.970298    0.033549    0.857289
Cl     3.714415    0.087533   -0.571069
Cl     2.740196   -1.341141    1.506870
Cl    -1.553361    1.399729   -2.765797
Cl    -0.957795   -1.988523   -2.371354
Cl    -1.831691    2.695962    0.224909
Cl    -1.546388   -2.672831    0.820519
Cl    -3.616105   -0.159552    0.310926
Cl    -1.802037    0.263212    2.587355
H      1.998568    1.856065    0.162499
H      0.883379    1.726159   -1.234502
H      0.254955    1.491983    1.566267
H      1.728659   -0.421981   -1.764203
H      0.207244   -0.771002    2.031006
H      1.324804   -2.134291   -0.192747
