52

C      0.559935   -0.478314    2.192843
C      0.879650    0.214245    0.908472
C     -0.595373    0.051774    2.949989
C      2.062639   -0.384391    0.198753
C     -1.894331    0.003913    2.160722
C      3.276400   -0.299510    1.049644
C     -2.239494   -1.382458    1.747092
C      4.510565   -0.870906    0.375703
C     -3.466545   -1.680921    1.042581
C      4.837303   -0.150731   -0.902434
C     -3.259675    1.657008   -2.207075
C     -4.614858    1.334072   -2.717611
C     -3.908986   -1.343892   -0.287638
C     -2.951608    0.857930   -1.144832
C     -4.751526   -0.136769   -2.274691
C      5.100887    1.306075   -0.660100
C     -4.060345   -0.021741   -0.888120
C      5.419497    1.980768   -1.943212
O      5.678541    3.220471   -1.984918
O      5.436546    1.253494   -3.118051
H      1.474118   -0.413681    2.879916
H      0.447991   -1.572820    2.050607
H      1.034959    1.307820    1.083976
H     -0.017997    0.083919    0.232375
H     -0.762859   -0.622744    3.830730
H     -0.440885    1.062744    3.373546
H      1.799528   -1.435395   -0.053600
H      2.237506    0.215202   -0.723454
H     -1.952006    0.799118    1.449321
H     -2.685426    0.274175    2.957370
H      3.129389   -0.957479    1.950133
H      3.431613    0.732323    1.388244
H     -1.322148   -1.847284    1.221676
H     -2.230720   -2.018895    2.710451
H      4.372570   -1.946393    0.179919
H      5.363093   -0.752045    1.069381
H     -4.344534   -1.399893    1.803497
H     -3.644794   -2.854906    1.136585
H      4.034671   -0.229413   -1.653573
H      5.745227   -0.589124   -1.348702
H     -2.625479    2.432073   -2.644786
H     -4.694328    1.408189   -3.816656
H     -5.400849    1.937186   -2.210936
H     -3.340030   -2.026769   -1.069090
H     -4.973456   -1.837424   -0.450925
H     -1.953396    0.985699   -0.685052
H     -5.788717   -0.447409   -2.176839
H     -4.189557   -0.786201   -2.949616
H      5.987663    1.394597    0.015258
H      4.260794    1.813047   -0.128031
H     -4.861184    0.549780   -0.260952
H      5.890020    1.611884   -3.950122
