82

C     -4.608237    1.580190    2.069786
C     -4.884225   -0.315089    3.549687
C      3.601152   -1.458614   -0.563943
C      4.280355    2.650983    1.097459
C     -1.323784    1.250279   -0.462469
C      0.685658   -1.133774   -2.285743
C     -0.592476   -1.985703    0.731419
C      0.865399   -2.068528    0.464659
C      2.523411    1.207612   -1.671781
C      4.721452   -0.306690    1.710311
C      3.223779   -0.493274    1.610852
C      1.001075    1.123311   -1.539793
C     -5.441180   -0.557946    1.212258
C     -1.774463   -0.492449   -2.037696
C     -5.025340   -0.102864   -0.169668
C     -3.241261   -0.275455   -1.768200
C     -3.062794   -0.391577    1.813012
C      5.063618    2.159540   -1.136979
C     -1.439130   -1.150738    0.189752
C     -2.877763   -1.192903    0.560905
C      3.021292    0.979174   -0.262101
C      1.293217   -0.657328    0.112711
C      5.328005    0.518808    0.638589
C     -4.419116   -2.232830   -1.034601
C     -4.426162    0.080507    2.135257
C      2.765588   -0.466843    0.138447
C      4.354502    1.520268    0.052661
C     -0.944619   -0.169806   -0.785634
C      0.532831   -0.237728   -1.078590
C     -3.796397   -0.937077   -0.561895
O      5.242731    1.325667   -2.202878
O      6.348140    1.301200    1.241254
O     -4.120869   -3.303155   -0.445360
O     -5.304401   -2.270787   -2.093740
H     -3.921281    2.087668    1.392122
H     -4.452357    2.014058    3.080068
H     -5.680254    1.774666    1.820435
H     -5.928727    0.034531    3.651092
H     -4.768513   -1.394401    3.688406
H     -4.263780    0.291240    4.238705
H      2.991395   -2.350726   -0.810888
H      4.422203   -1.914439    0.073144
H      4.147315   -1.068032   -1.449184
H      4.941533    3.483101    0.876121
H      3.234772    3.009205    1.120616
H      4.508079    2.262913    2.108026
H     -0.857112    1.693890    0.406485
H     -2.416908    1.381725   -0.325854
H     -1.080843    1.856987   -1.354228
H      0.289638   -0.554095   -3.147911
H      0.253535   -2.125098   -2.146733
H      1.749556   -1.300101   -2.559623
H     -1.011113   -2.706771    1.467372
H      1.396043   -2.473428    1.331158
H      1.093121   -2.732103   -0.395490
H      2.928870    0.532494   -2.409535
H      2.741232    2.260752   -1.922988
H      5.261548   -1.290574    1.818232
H      4.885673    0.181911    2.717391
H      2.699855    0.321210    2.147994
H      3.000626   -1.455483    2.085041
H      0.559211    1.450726   -2.482605
H      0.805683    1.831754   -0.679864
H     -6.467486   -0.199128    1.444550
H     -5.349031   -1.656110    1.260597
H     -1.545278    0.215201   -2.858991
H     -1.673484   -1.547739   -2.348687
H     -5.858179   -0.262158   -0.861435
H     -4.771537    0.974774   -0.204088
H     -3.733116   -0.693002   -2.709288
H     -3.547885    0.810282   -1.878430
H     -2.729843   -0.987930    2.723502
H     -2.362655    0.494688    1.883711
H      6.090836    2.423883   -0.747296
H      4.590530    3.125148   -1.424554
H     -3.093297   -2.255145    0.910456
H      2.285048    1.541933    0.382964
H      0.896981   -0.027995    0.971452
H      5.881556   -0.044004   -0.150780
H      5.036614    1.840342   -3.038278
H      7.122779    0.760772    1.486624
H     -5.871541   -3.113773   -2.199492
