28

C     -1.203076    2.246786    0.291095
C     -2.022035   -0.981686    0.376921
C     -0.809580   -0.128231   -1.591593
C      0.198210    0.703582    1.697349
C      0.642003   -0.713545    1.729652
C      1.614990   -1.183238   -0.566393
C     -0.567567    0.913330    0.648142
C      0.426202   -1.189060    0.319206
C      2.245319    0.119624   -0.766011
C     -0.712373   -0.345073   -0.103649
O      2.604795    0.819156    0.203696
O      2.453794    0.605912   -2.041876
H     -2.092431    2.055546   -0.302696
H     -0.434107    2.843158   -0.222492
H     -1.494857    2.706566    1.266886
H     -1.828906   -1.420899    1.370080
H     -2.353628   -1.746849   -0.355230
H     -2.788221   -0.192010    0.423889
H     -1.883357   -0.041202   -1.843457
H     -0.348023    0.806082   -1.933238
H     -0.446579   -1.033016   -2.080292
H      0.460654    1.477358    2.425484
H     -0.050190   -1.263389    2.435321
H      1.654870   -0.741542    2.104675
H      1.356317   -1.710083   -1.514194
H      2.414619   -1.857823   -0.122867
H      0.067326   -2.254937    0.382987
H      2.895832    1.505482   -2.231395
