28

C      2.377405   -0.902902    1.481467
C     -2.884064    0.848206    0.222858
C     -1.885573   -0.551026   -1.637559
C      1.958665    0.778337   -0.235271
C      0.783931    1.073402   -1.179147
C      0.428497   -1.175458   -0.036438
C      1.871197   -0.715276    0.059682
C     -0.434041    1.164027   -0.314602
C     -0.534184   -0.121406    0.479396
C     -1.624082    0.357389   -0.476562
H      2.815582   -1.921563    1.518138
H      1.485743   -0.929790    2.143452
H      3.078445   -0.107907    1.784923
H     -2.822188    0.674925    1.328135
H     -3.782963    0.265937   -0.103287
H     -3.036030    1.932807    0.098800
H     -2.140065   -1.558429   -1.209734
H     -1.064600   -0.600616   -2.366711
H     -2.809020   -0.222109   -2.178232
H      1.816634    1.357337    0.722186
H      2.886259    1.060723   -0.728452
H      0.743787    0.213320   -1.873047
H      0.977976    1.971436   -1.788805
H      0.162061   -1.553533   -1.031499
H      0.340168   -2.036307    0.679353
H      2.487870   -1.289805   -0.673167
H     -0.490763    2.073098    0.311279
H     -0.706650   -0.084820    1.555217
