30

C     -1.973826   -0.180859    1.159886
C     -1.375061   -1.383875   -0.901705
C     -1.331890    1.758033   -1.106657
C      0.793355    0.247887    1.541192
C      0.263590    1.464001    0.778519
C      0.403637   -0.896983    0.703917
C      1.177694   -0.905040   -0.591782
C      0.721926    0.351962   -1.289217
C      2.626417   -0.942515   -0.476142
C     -0.944205   -0.399005    0.126184
C     -0.365552    0.870150   -0.468193
O      1.186744    0.797889   -2.308650
O      3.208522   -1.101607    0.610466
O      3.389428   -0.797168   -1.623302
H     -1.649910    0.232386    2.112987
H     -2.716651    0.562535    0.741788
H     -2.569023   -1.122007    1.267260
H     -1.041256   -1.074228   -1.923884
H     -2.486395   -1.455023   -0.918609
H     -0.997800   -2.405991   -0.728866
H     -0.799268    2.419500   -1.833338
H     -1.746724    2.460656   -0.331350
H     -2.179060    1.265598   -1.602311
H      1.872551    0.336310    1.704227
H      0.333897    0.234337    2.562452
H      1.093606    2.117096    0.436014
H     -0.488777    2.001271    1.362889
H      0.307578   -1.860232    1.182765
H      0.886498   -1.796138   -1.217868
H      4.399951   -0.798942   -1.537729
