49

C      0.689684    0.378140    1.270937
C     -2.736476   -1.358150   -1.324399
C     -0.502295   -2.112482    1.027626
C      5.120247   -0.036430   -0.033822
C     -1.852380   -1.492148    0.970248
C      5.803256    0.934071    0.702337
C      1.473277    0.419362   -1.014259
C      3.807699    1.677270    0.354792
C      3.847671    0.442312   -0.253042
C      0.428934   -1.652224   -0.055332
C      2.775839   -0.262795   -0.995541
C     -1.186408    1.741736   -0.479223
C     -2.408077    2.044547   -1.332370
C     -0.940923    0.234762   -0.635244
C     -3.561885    1.247749   -0.914977
C      1.799289   -2.085017    0.290146
C     -2.652427    1.310539    1.320833
C      0.409423   -0.157576   -0.104287
C     -2.083188   -0.571988   -0.175258
C     -3.198258    0.390628    0.275570
O      2.049387   -2.826865    1.242266
O     -3.139126    1.415769    2.451661
O     -4.278193   -0.308108    0.770549
O      4.993610    1.919537    0.905957
O      2.777775   -1.590064   -0.541974
O     -3.506334    2.647831   -0.770014
O     -1.528215    2.043009    0.883195
H      0.799540    1.485340    1.185126
H     -0.052503    0.150669    2.019720
H      1.657109   -0.051107    1.599999
H     -2.860640   -0.685022   -2.193090
H     -2.138469   -2.213483   -1.631821
H     -3.719480   -1.698801   -0.915033
H     -0.529062   -3.234835    0.967895
H      0.011602   -1.903610    2.008711
H      5.559874   -0.987018   -0.353755
H     -2.151827   -1.009692    1.948769
H     -2.597493   -2.340161    0.882320
H      6.826139    0.838081    1.024070
H      1.018709    0.425601   -2.050580
H      1.634184    1.492999   -0.786389
H      2.998042    2.386062    0.419035
H      0.184727   -2.120904   -1.037066
H      3.148133   -0.312038   -2.064159
H     -0.341841    2.318720   -0.839635
H     -2.261800    2.258954   -2.407671
H     -0.859606    0.105542   -1.758068
H     -4.361709    0.926715   -1.601736
H     -4.365536   -0.225430    1.746982
