49

C      0.774493   -2.036015    0.193683
C     -1.770216    1.984091    0.340995
C      0.179979   -0.174822    2.384051
C      4.553544    1.273467   -2.186067
C     -1.160877    0.458854    2.231075
C      4.928774    1.243621   -3.510469
C      1.215610   -0.114791   -1.214598
C      2.906346    0.511412   -3.410095
C      3.255644    0.805057   -2.109938
C      1.005875    0.173607    1.181942
C      2.440722    0.660367   -0.884710
C     -1.811958   -1.677572   -0.240553
C     -3.010234   -1.429413   -1.079506
C     -1.052767   -0.363731   -0.155077
C     -3.686575   -0.186386   -0.486134
C      2.425412   -0.277414    1.305539
C     -3.111171   -1.174798    1.672376
C      0.423307   -0.553499    0.001768
C     -1.686192    0.550463    0.843866
C     -3.163421    0.106824    0.913830
O      2.883423   -0.879535    2.285712
O     -3.749242   -1.395320    2.729561
O     -3.957639    1.055142    1.489170
O      3.925458    0.787514   -4.192481
O      3.200956    0.058525    0.173844
O     -4.287134   -1.418424   -0.649219
O     -2.261431   -2.101679    1.058086
H      0.824918   -2.556698   -0.801742
H      0.127582   -2.528285    0.914533
H      1.818541   -2.073953    0.582479
H     -0.801400    2.371876   -0.003986
H     -2.230122    2.587959    1.135949
H     -2.442511    1.973511   -0.540051
H      0.138949   -1.265487    2.578085
H      0.693808    0.266325    3.275216
H      5.180365    1.610910   -1.346308
H     -1.065478    1.516590    2.618085
H     -1.872548   -0.022489    2.955705
H      5.876859    1.542487   -3.907264
H      1.513808   -0.977296   -1.853020
H      0.534372    0.558358   -1.793541
H      1.950612    0.117228   -3.742230
H      1.027915    1.258360    1.079009
H      2.153636    1.696409   -0.572414
H     -1.206061   -2.502332   -0.628335
H     -2.857151   -1.471116   -2.170684
H     -1.184027    0.149727   -1.157288
H     -3.809347    0.615018   -1.207549
H     -3.783406    1.247352    2.424416
