24

C     -2.782054   -0.231067   -0.688415
C     -1.157714   -1.493028    0.693667
C      0.333211   -1.355093    0.483397
C     -0.624110    2.081646   -0.226200
C      1.684544    2.081517   -0.493959
C     -1.763190   -0.145237    0.437709
C      0.543505    0.071180    0.118454
C     -0.647911    0.754330    0.093518
C      1.698976    0.744170   -0.176278
C      3.009311    0.075509   -0.168602
N      0.516727    2.737794   -0.515216
O      4.065871    0.665532   -0.432028
O      3.047601   -1.271591    0.148613
H     -2.409276   -0.855868   -1.519502
H     -3.686320   -0.719302   -0.246164
H     -3.095713    0.777342   -1.005167
H     -1.578975   -2.275308    0.017701
H     -1.353214   -1.792943    1.762910
H      0.901595   -1.632290    1.399859
H      0.661269   -2.028670   -0.334825
H     -1.553780    2.654410   -0.255134
H      2.576958    2.646099   -0.732295
H     -2.342415    0.219242    1.332769
H      3.955104   -1.708370    0.248660
