24

C     -2.914670   -0.512402    0.860981
C     -1.663270    0.443925   -1.096915
C     -0.230023    0.987560   -1.221981
C      0.036228   -0.939790    1.846203
C      2.229599   -0.877878    0.999386
C     -1.771054    0.336495    0.397537
C      0.470313    0.205036   -0.166615
C     -0.450191   -0.186729    0.785278
C      1.802149   -0.120825   -0.088093
C      2.798818    0.281481   -1.062066
N      1.337147   -1.262155    1.928565
O      2.438471    0.989922   -2.026768
O      4.130909   -0.087313   -0.965903
H     -2.674135   -1.149485    1.735744
H     -3.368750   -1.063457    0.022788
H     -3.713620    0.193858    1.230857
H     -1.653655   -0.584193   -1.556741
H     -2.394919    1.112954   -1.553246
H     -0.224770    2.047623   -0.968974
H      0.173437    0.731394   -2.213374
H     -0.679872   -1.248067    2.591923
H      3.274736   -1.157588    1.099547
H     -1.840801    1.375089    0.793778
H      4.887923    0.484543   -1.371911
