40

C      5.014636    1.471617   -0.658169
C      2.054290    1.588799    0.810576
C      0.881050    1.151353    1.200089
C      0.438694   -1.222518    1.789420
C      0.432828   -2.444858    0.908615
C     -3.040355   -0.871250   -0.696058
C      2.470819   -0.664487   -0.080159
C     -1.963552    0.901999    1.099892
C     -0.848518   -1.929882   -1.056745
C     -5.474708    1.658373    0.377103
C     -1.709001   -0.918316   -0.406828
C      2.883881    0.791200   -0.122267
C     -1.178013   -0.036743    0.484609
C     -3.882194    0.064269   -0.097892
C     -3.327248    0.941195    0.795893
C      0.991663   -0.676844   -0.404369
C      0.276734   -0.097020    0.792437
N      0.452934   -2.006575   -0.449692
O      4.211100    0.914929    0.326733
O     -5.235329    0.357769   -0.180111
O     -4.348738    1.768667    1.256517
H      4.676003    2.486573   -0.964426
H      5.119589    0.781424   -1.529963
H      6.036411    1.593371   -0.244200
H      2.443383    2.576754    1.182386
H      0.328373    1.806335    1.907029
H     -0.468579   -1.244806    2.437342
H      1.311726   -1.129120    2.431490
H     -0.422439   -3.122642    1.136811
H      1.379039   -2.998655    1.103266
H     -3.496565   -1.551223   -1.395417
H      3.055553   -1.263646   -0.808186
H      2.669054   -1.098590    0.911635
H     -1.609805    1.635586    1.825415
H     -1.346469   -2.914715   -1.150619
H     -0.680999   -1.559022   -2.110452
H     -5.329360    2.451133   -0.393100
H     -6.426580    1.716413    0.904063
H      2.850074    1.181343   -1.159487
H      0.810620   -0.088189   -1.316727
