40

C      5.171236    1.087695    0.108119
C      2.044685    1.425512   -0.887242
C      0.763706    1.086620   -1.074440
C      0.361372   -1.360867   -1.147576
C      1.029154   -2.231113   -0.123260
C     -3.146313   -0.949767    1.058542
C      2.185049    0.058681    1.168468
C     -2.098694    1.017005   -0.644175
C     -0.874284   -1.962444    1.276802
C     -5.487251    1.671415    0.314182
C     -1.784261   -0.933938    0.729293
C      2.900640    0.663333    0.021428
C     -1.292069    0.053039   -0.117247
C     -3.943794    0.033105    0.515516
C     -3.442217    1.006277   -0.323129
C      0.770943   -0.289317    0.994082
C      0.183029   -0.051014   -0.378298
N      0.515041   -1.711085    1.135090
O      3.909224    1.503899    0.507588
O     -5.312959    0.291179    0.643275
O     -4.479105    1.831144   -0.693262
H      5.895152    1.810059    0.538808
H      5.222369    1.169870   -0.993039
H      5.429363    0.077195    0.479543
H      2.470117    2.292526   -1.423050
H      0.243660    1.731832   -1.780441
H     -0.579880   -1.822023   -1.440159
H      0.969507   -1.216415   -2.059947
H      0.805418   -3.308170   -0.242112
H      2.103388   -2.100807   -0.192696
H     -3.510523   -1.725089    1.718446
H      2.282863    0.772474    2.042287
H      2.785596   -0.833683    1.525663
H     -1.659223    1.749036   -1.289041
H     -1.147929   -2.133164    2.341658
H     -1.097333   -2.918233    0.723384
H     -6.495839    1.882926   -0.076236
H     -5.230070    2.277966    1.216289
H      3.405973   -0.137394   -0.573856
H      0.134260    0.191737    1.796748
