37

C      3.543467   -0.322160    0.030154
C      2.264339    1.677815   -0.473970
C     -2.027568    3.553470    0.574116
C     -2.120801   -2.663397   -1.202812
C     -2.671343    1.400377   -0.514394
C     -0.233446   -2.473757    0.332749
C     -2.427764    0.079608   -0.896390
C      1.102716   -1.824552    0.473477
C     -0.508256    1.544111    0.505653
C      2.183440    0.170434   -0.414843
C     -1.731792    2.135896    0.179025
C     -0.907346   -1.849313   -0.905840
C      1.084336   -0.331655    0.504559
C     -1.215515   -0.435806   -0.546133
C     -0.227374    0.235929    0.144308
H      4.295913    0.260392   -0.553063
H      3.715995   -1.386259   -0.211317
H      3.735065   -0.089145    1.098817
H      3.181727    1.883685   -1.106020
H      2.497434    2.078594    0.512937
H      1.403961    2.141816   -0.992780
H     -3.128342    3.685720    0.525659
H     -1.513944    4.261537   -0.110449
H     -1.689878    3.731881    1.597904
H     -3.029100   -2.320467   -0.668143
H     -2.321510   -2.657689   -2.290170
H     -1.998871   -3.740450   -0.911671
H     -3.643630    1.833468   -0.788115
H     -0.909509   -2.297606    1.192936
H     -0.096036   -3.535047    0.098505
H     -3.203394   -0.439015   -1.435867
H      1.705490   -2.177730   -0.420823
H      1.560550   -2.230212    1.409524
H      0.177217    2.171315    1.051002
H      2.022488   -0.238172   -1.444458
H     -0.209084   -1.828836   -1.750861
H      1.340365   -0.004780    1.545167
