42

C      3.717852    0.404060   -0.120336
C      2.076949    2.120667   -0.561733
C     -1.985224    3.423237    0.076531
C     -1.925327   -2.877225    0.359401
C     -2.668794    1.106658   -0.692021
C     -2.433031   -0.354500   -0.362472
C      1.613642   -1.493318    0.666281
C      0.399096   -2.353319    0.834213
C     -0.521849    1.533749    0.497046
C      2.323962    0.872217    0.292298
C     -1.660313    1.975013   -0.019878
C      1.294644   -0.155544   -0.019943
C     -0.107121    0.151255    0.458123
C     -0.994652   -0.701450   -0.457294
C     -0.692826   -2.131283   -0.173135
O     -0.344129   -2.823398   -1.356514
H      4.329521    1.237538   -0.522528
H      3.699001   -0.392786   -0.860137
H      4.274985    0.040966    0.784679
H      2.955751    2.220766   -1.259826
H      2.148857    2.987150    0.110757
H      1.146153    2.083382   -1.131354
H     -3.012720    3.563750    0.520948
H     -2.035020    3.916734   -0.914110
H     -1.293107    3.954764    0.781869
H     -2.763915   -2.832656   -0.342901
H     -2.177285   -2.556989    1.381482
H     -1.607448   -3.951300    0.430921
H     -3.663941    1.414492   -0.314050
H     -2.617261    1.323778   -1.772168
H     -2.971841   -0.937574   -1.136848
H     -2.825485   -0.560900    0.650436
H      2.030720   -1.298847    1.676572
H      2.328256   -2.047583    0.008916
H      0.670490   -3.434119    0.767707
H     -0.051975   -2.254278    1.865347
H      0.129326    2.257787    0.997334
H      2.328504    1.117684    1.350636
H      1.289539   -0.354399   -1.103946
H     -0.177195   -0.254445    1.510519
H     -0.619994   -0.479923   -1.491331
H      0.393206   -3.459812   -1.177444
