39

C      4.978847   -1.491668   -0.217154
C      3.523263    0.200965   -1.480170
C     -2.483926    2.666176   -0.791811
C     -1.118729    0.892084    1.715161
C      1.577162    0.083224    0.617154
C      2.822849   -0.729335    0.686661
C     -3.746131    0.688873   -0.172780
C     -3.404724   -0.461030    0.719424
C      0.360366   -0.815530    0.637934
C     -1.806819   -0.892918   -1.139948
C      3.737591   -0.680908   -0.288141
C     -2.482810    1.354172   -0.597916
C     -2.076544   -1.049008    0.364289
C     -1.288676    0.505040   -0.781025
C     -0.926100   -0.067638    0.569522
H      5.400557   -1.710382   -1.209099
H      4.749531   -2.497745    0.241982
H      5.732557   -1.040631    0.485181
H      4.375733    0.135001   -2.160911
H      3.384640    1.257630   -1.204701
H      2.581938   -0.158097   -1.973791
H     -1.592151    3.170420   -1.097043
H     -3.383252    3.250377   -0.645728
H     -1.108858    0.404417    2.688118
H     -2.076724    1.449762    1.633940
H     -0.315878    1.637299    1.672990
H      1.575926    0.602953   -0.362038
H      1.544589    0.864734    1.389686
H      3.032629   -1.390477    1.532108
H     -4.354113    0.371166   -1.060235
H     -4.405721    1.388240    0.390468
H     -4.149824   -1.282727    0.679507
H     -3.410071   -0.082787    1.778631
H      0.385383   -1.338161    1.632681
H      0.462119   -1.591418   -0.118787
H     -2.701041   -0.890527   -1.760243
H     -1.036566   -1.566322   -1.531398
H     -1.874590   -2.065057    0.750701
H     -0.482434    0.879835   -1.397394
