56

C     -1.265376   -3.778659   -0.522148
C     -4.162895    1.173527    0.120484
C     -0.549074    3.663434    2.221144
C     -0.159404   -2.096042   -2.063167
C      7.592650    0.149523    0.256758
C     -1.109035   -2.236142    1.405765
C      0.077261   -1.425219    1.736851
C      3.750722    1.414243    1.257305
C      5.044726    1.349794    1.049993
C     -3.888435    1.902959   -2.238790
C     -2.097868   -0.675407   -1.733778
C     -1.532011   -2.359036    0.014356
C     -3.462776    1.259878   -0.982951
C     -1.027627    2.351466    1.693721
C      0.745376   -0.746744    0.574712
C      2.887454    0.336782    0.831138
C     -0.201065   -0.269861   -0.464161
C     -1.248775    0.674086   -0.003453
C     -1.598145    1.675840   -2.248140
C     -0.998541   -1.412958   -0.989586
C     -2.119146    0.743437   -1.214603
O     -1.698911    1.651255    2.499954
O      3.403058   -0.658081    0.260275
O     -0.412174    1.918793   -2.547398
O     -2.692654    2.266740   -2.862393
O     -0.751685    1.930045    0.400534
O      1.509624    0.345271    1.021581
S      5.797219   -0.052965    0.241627
H     -1.452905   -3.852471   -1.592202
H     -2.019774   -4.457436   -0.024957
H     -0.282741   -4.145512   -0.187218
H     -5.156478    1.607104    0.146297
H     -3.804413    0.685342    1.027509
H      0.242322    4.103891    1.606414
H     -1.409298    4.347376    2.402931
H     -0.102939    3.482484    3.239441
H      0.399561   -2.951364   -1.694272
H      0.572797   -1.381784   -2.509258
H     -0.812974   -2.421856   -2.898144
H      8.108378   -0.807309    0.106832
H      7.880065    0.636346    1.224146
H      7.849876    0.847172   -0.574551
H     -1.957796   -1.867087    2.060967
H     -0.931258   -3.277884    1.817196
H      0.891457   -2.027839    2.242487
H     -0.134720   -0.609177    2.486286
H      3.319747    2.267865    1.745581
H      5.656286    2.188600    1.389933
H     -4.579769    2.755411   -2.081358
H     -4.392192    1.161972   -2.910920
H     -3.068303   -1.182850   -1.489309
H     -1.986078   -0.697817   -2.814891
H     -2.661745   -2.292796   -0.032560
H      1.409334   -1.505639    0.102645
H      0.414136    0.128567   -1.310661
H     -1.823066    0.170733    0.806008
