56

C     -0.225401   -2.381556   -3.411394
C     -1.085427    3.017995    0.307350
C     -1.535850   -1.030940    4.138938
C     -2.271716   -1.965443   -1.620314
C      5.886034   -0.230260    2.556646
C      0.655820   -0.114699   -3.112851
C      1.638643   -0.651064   -2.113500
C      2.764365    1.751200    1.804956
C      3.601860    1.664207    2.822624
C     -3.487357    2.601163   -0.167922
C     -1.941307    0.446886   -1.643905
C     -0.565542   -0.982333   -3.023187
C     -2.076389    2.222356    0.021371
C     -1.008796   -0.326925    2.940701
C      1.153824   -0.630637   -0.702308
C      2.382995    0.548582    1.073434
C     -0.300672   -0.903856   -0.502208
C     -0.904134    0.066164    0.502488
C     -3.356038    0.379129    0.392997
C     -1.196549   -0.866385   -1.671377
C     -2.032377    0.758644   -0.185982
O     -0.154086    0.569905    3.124842
O      2.850304   -0.555930    1.413249
O     -3.653686   -0.745349    0.820057
O     -4.178463    1.483327    0.370286
O     -1.406367   -0.607044    1.664474
O      1.528674    0.529854    0.012218
S      4.312005    0.129298    3.370206
H      0.751119   -2.433430   -3.976834
H     -0.994656   -2.814523   -4.109691
H     -0.087502   -2.988628   -2.501963
H     -0.046406    2.739064    0.446488
H     -1.297149    4.099775    0.427049
H     -2.516856   -0.621404    4.438785
H     -0.827620   -0.931158    4.998134
H     -1.607912   -2.118716    3.936024
H     -3.273330   -1.572858   -1.766687
H     -2.107463   -2.732261   -2.404981
H     -2.151346   -2.498384   -0.658595
H      5.731664   -0.648531    1.541881
H      6.371418   -1.049384    3.146126
H      6.548142    0.652138    2.572082
H      0.417416    0.934540   -3.015340
H      1.095744   -0.271452   -4.122153
H      2.588655   -0.080636   -2.187761
H      1.897085   -1.673486   -2.471306
H      2.342768    2.687239    1.485248
H      3.863992    2.571369    3.342770
H     -3.690056    2.612711   -1.260454
H     -3.763521    3.548404    0.329056
H     -2.978070    0.313783   -2.071201
H     -1.426187    1.250224   -2.201538
H     -1.306189   -0.577378   -3.767136
H      1.716992   -1.439171   -0.180584
H     -0.454415   -1.923099   -0.029110
H     -0.190681    0.788963    0.879800
