32

C      4.326899   -0.341864   -0.873268
C     -4.228551   -1.412698   -0.351272
C     -3.439845    1.237559    0.350556
C      3.144763   -1.036987   -0.270479
C     -2.940823   -0.825571   -0.937839
C      2.729364   -0.428918    1.048036
C      2.348680    1.006530    0.930056
C      1.217673    1.308097    0.016880
C     -2.421312    0.146632    0.092089
C     -0.030544    0.648444    0.432871
O     -0.161156   -0.078524    1.459457
O     -1.223681    0.780854   -0.309427
H      4.938305   -1.097188   -1.408070
H      4.984343    0.112228   -0.102572
H      4.016865    0.409954   -1.638515
H     -4.561253   -2.302192   -0.893309
H     -3.973650   -1.649413    0.716681
H     -4.985320   -0.608231   -0.316190
H     -3.985335    1.010954    1.289714
H     -4.198820    1.302531   -0.459905
H     -2.972832    2.242805    0.408118
H      3.387336   -2.107943   -0.122211
H      2.270686   -0.959473   -0.973319
H     -3.232236   -0.345299   -1.888048
H     -2.225581   -1.645388   -1.069790
H      1.936857   -1.012443    1.531685
H      3.616235   -0.478932    1.748278
H      2.093655    1.445271    1.937795
H      3.216646    1.648816    0.594642
H      1.111385    2.432055   -0.002887
H      1.521413    1.039597   -1.015697
H     -2.280165   -0.441264    1.033726
