38

C      5.492867   -0.778890    0.666058
C      4.829196    1.613030   -0.001981
C     -5.718515    0.249644    0.471041
C      0.610193   -1.755124    0.308248
C     -3.562820   -0.715008    1.164673
C     -3.544622    0.892916   -0.667420
C     -2.112424   -0.883256    1.085323
C     -2.041923    0.873582   -0.623641
C      3.175136   -0.150006    0.237159
C      0.708024    0.578580   -0.236491
C      4.433978    0.227114    0.292963
C     -4.212606    0.097979    0.362216
C     -0.030836   -0.484018   -0.070466
C     -1.515465   -0.479005   -0.244364
C      2.129771    0.731099   -0.103567
O      2.494743    1.970418   -0.363154
H      5.335127   -1.690051    0.052421
H      6.483882   -0.364112    0.400175
H      5.498020   -0.975926    1.753162
H      4.435173    2.362439    0.713569
H      4.636741    1.906107   -1.069272
H      5.962635    1.707808    0.146305
H     -6.127614   -0.354895   -0.378231
H     -6.034073   -0.131262    1.455870
H     -5.964731    1.313250    0.306823
H      1.252714   -2.077224   -0.533278
H      1.034468   -1.791989    1.304313
H     -0.192422   -2.576832    0.309066
H     -4.152627   -1.269460    1.903560
H     -3.850375    0.547017   -1.695554
H     -3.950308    1.936724   -0.597058
H     -1.880520   -1.958540    1.240051
H     -1.560693   -0.342202    1.891836
H     -1.612345    1.162161   -1.596755
H     -1.772521    1.581709    0.212985
H      3.009535   -1.183978    0.475534
H      0.078855    1.470323   -0.528071
H     -1.763618   -1.260122   -0.978554
