49

C     -8.010412   -1.296096   -1.579539
C      8.200049    0.359620    0.855777
C     -5.888396   -2.407280   -0.850014
C     -5.930137   -0.052976   -0.961710
C      6.420129   -0.496570   -0.633429
C      5.852761    0.981874    1.195870
C     -4.568309   -2.359755   -0.427018
C     -4.605758   -0.005528   -0.537319
C      5.071397   -0.548900   -0.977150
C      4.509440    0.897005    0.810449
C     -6.590171   -1.253271   -1.124105
C      6.771821    0.278139    0.457396
C     -3.906895   -1.160993   -0.264109
C      4.120665    0.141930   -0.262107
C     -0.501206    0.082282    0.780675
C      0.361911    0.660113   -0.347158
C     -0.371006    0.899076    2.009298
C     -0.209939    1.982497   -0.707286
C     -2.519115   -1.132344    0.181599
C      2.733800    0.048042   -0.668522
O      0.733100    1.061258    2.573402
O     -1.492277    1.500622    2.552792
O     -1.416319    2.091790   -1.045091
O      0.538391    3.153608   -0.692763
O     -1.903519   -2.195979    0.424368
O      2.383800   -0.647437   -1.654983
O     -1.848236    0.060007    0.347745
O      1.705791    0.716242    0.000958
O     -0.000677    0.366225   -0.000000
H     -8.487036   -2.167768   -1.114610
H     -8.081496   -1.269575   -2.681805
H     -8.557192   -0.396507   -1.178338
H      8.873524    0.150183   -0.007768
H      8.374236    1.338832    1.308681
H      8.440810   -0.418524    1.620718
H     -6.392383   -3.341761   -0.973194
H     -6.477085    0.850348   -1.175498
H      7.181836   -1.016135   -1.161671
H      6.199042    1.562644    2.030285
H     -4.008519   -3.266383   -0.209001
H     -4.112836    0.939149   -0.418036
H      4.817689   -1.156165   -1.827843
H      3.797245    1.446620    1.388306
H     -0.117423   -0.946590    0.947297
H      0.258058    0.002281   -1.234167
H     -1.422251    2.286945    3.191778
H      0.072421    4.045428   -0.588583
H     -0.812575   -0.183358   -0.000000
H      0.813252   -0.182867    0.000000
