28

C     -0.875793   -2.457073   -0.552950
C      3.319126    1.711017    0.143828
C     -2.968124    1.851891    0.356763
C     -2.750041    0.786894    1.218762
C     -2.246386    1.927465   -0.808012
C     -1.820473   -0.176799    0.902625
C     -1.313618    0.968597   -1.134319
C      0.920688   -1.139502    0.585908
C     -0.113451   -1.167824   -0.546803
C      2.785089    0.308374    0.068729
C     -1.107141   -0.071974   -0.282204
N      1.619410    0.104745    0.550637
O      3.562969   -0.669730   -0.504585
H     -0.428588   -3.233084    0.102660
H     -0.906561   -2.843061   -1.582597
H     -1.926740   -2.334046   -0.203422
H      4.339650    1.699550    0.572388
H      2.673777    2.368551    0.732391
H      3.391491    2.089678   -0.884814
H     -3.713216    2.600017    0.637285
H     -3.298478    0.690580    2.147260
H     -2.429116    2.764693   -1.468778
H     -1.674912   -0.996192    1.599105
H     -0.744963    1.025943   -2.049557
H      0.363068   -1.177709    1.558160
H      1.545665   -2.032607    0.530074
H      0.382286   -0.974633   -1.505357
H      3.414382   -1.623763   -0.183174
