28

C     -0.822343   -0.358548    1.527159
C     -4.208593    0.348159   -1.400602
C      4.039716   -0.348776    0.728884
C      3.256819    0.637691    1.294097
C      3.444598   -1.309182   -0.026242
C      1.887713    0.647098    1.093998
C      2.078571   -1.293986   -0.221901
C     -0.651516    1.057928   -0.441107
C     -0.190814   -0.251338    0.156567
C     -2.724903    0.297548   -1.375992
C      1.266459   -0.320384    0.330006
N     -2.096418    1.043630   -0.533856
O     -1.978215   -0.515207   -2.216858
H     -0.342178    0.379512    2.222608
H     -1.888007   -0.006291    1.404916
H     -0.841755   -1.376103    1.919570
H     -4.608202    0.287464   -0.352336
H     -4.633778   -0.477327   -2.005224
H     -4.503434    1.347711   -1.813329
H      5.108718   -0.371272    0.874593
H      3.710657    1.408076    1.896043
H      4.031059   -2.108873   -0.492017
H      1.323201    1.457442    1.570425
H      1.636629   -2.055716   -0.816429
H     -0.247333    1.242905   -1.441906
H     -0.366355    1.921981    0.192097
H     -0.571251   -1.101159   -0.446852
H     -1.109047   -0.182982   -2.618846
