43

C     -1.572218    3.232672    0.114230
C     -2.663461   -2.645560    0.095396
C     -2.369949    2.210187    0.856709
C     -3.375797   -1.399375   -0.303227
C      4.080244   -2.238107    0.139126
C      2.716457   -2.262500    0.322147
C      4.734863   -1.047913   -0.088170
C      0.701560    0.952631   -1.046265
C      1.760396    1.324172    0.008354
C     -1.758957    0.864535    1.005513
C     -2.507032   -0.345022   -0.939912
C      0.526615   -1.017191    0.479345
C      1.990273   -1.060801    0.276622
C     -0.168978   -0.139271   -0.574821
C      2.639643    0.135308    0.049086
C      3.995375    0.144523   -0.131206
N     -1.459892    0.129467   -0.120222
O      4.713768    1.294050   -0.361582
H     -1.956248    4.255101    0.388772
H     -0.486620    3.198020    0.333882
H     -1.677564    3.180293   -0.991503
H     -3.397337   -3.492940    0.043486
H     -2.326355   -2.636879    1.160985
H     -1.851496   -2.907244   -0.602548
H     -2.560630    2.668479    1.876788
H     -3.385982    2.188443    0.402723
H     -3.882397   -1.007260    0.612192
H     -4.149325   -1.690869   -1.075064
H      4.693996   -3.152363    0.165467
H      2.202654   -3.196417    0.501010
H      5.805428   -1.056715   -0.230021
H      0.231143    1.817095   -1.506315
H      1.359358    0.544538   -1.890034
H      1.296318    1.391881    1.028921
H      2.271692    2.247644   -0.266549
H     -0.928906    0.989543    1.753528
H     -2.513522    0.257873    1.611391
H     -2.014422   -0.866536   -1.818804
H     -3.115577    0.447023   -1.422453
H      0.105098   -2.042573    0.481829
H      0.347638   -0.573742    1.500619
H     -0.292539   -0.870616   -1.438763
H      4.242687    2.176418   -0.400665
