32

C      0.270066   -0.746849    3.335795
C     -1.449276    3.491436   -1.805157
C      0.455732    1.958186   -2.549013
C     -0.392136   -2.815362    1.431559
C      1.041873   -2.408444   -1.040207
C      1.047522   -1.102712    2.316025
C      0.340873    0.745009    0.178342
C     -0.547338    1.850747   -0.277411
C     -0.488826   -0.474279    0.559269
C     -0.484701    2.368864   -1.471110
C      0.400319   -1.592150    1.040474
O      1.412767   -1.862580    0.161264
H     -0.802935   -0.811772    3.239306
H      0.670711   -0.386115    4.272624
H     -1.168967    3.993819   -2.743794
H     -2.428521    2.991729   -1.959652
H     -1.453115    4.211893   -0.979884
H     -0.044502    2.138158   -3.549524
H      0.669471    0.891428   -2.500378
H      1.355192    2.602887   -2.520726
H     -1.297031   -2.483132    2.024875
H      0.229254   -3.387711    2.163474
H     -0.754487   -3.417332    0.588452
H      1.958292   -2.593461   -1.671387
H      0.438924   -1.673996   -1.623366
H      0.495591   -3.347010   -1.009187
H      2.111724   -1.031377    2.429178
H      1.068520    0.476383   -0.597232
H      0.877046    1.111616    1.101927
H     -1.289931    2.241288    0.446532
H     -1.184659   -0.130035    1.347559
H     -1.057453   -0.809124   -0.338626
