25

C     -2.311351    1.478180    0.555282
C     -0.594591   -1.992928   -1.184121
C     -2.588898    0.018265    0.718089
C      3.252558    0.688906    0.396885
C      2.516101    1.235559   -0.652306
C      2.642868   -0.299574    1.138085
C      1.238966    0.815276   -0.943271
C      1.364651   -0.725579    0.852865
C     -0.716008   -0.634009   -0.488347
C      0.652851   -0.172965   -0.188302
O     -1.425007   -0.743954    0.681858
H     -2.318820    2.021449    1.525133
H     -1.327475    1.652577    0.103476
H     -3.137833    1.941977   -0.048562
H     -1.568638   -2.232715   -1.680455
H      0.215003   -1.986690   -1.922076
H     -0.446946   -2.738679   -0.365431
H     -3.026339   -0.130531    1.734751
H     -3.314210   -0.324105   -0.051857
H      4.249831    1.046112    0.591660
H      2.995703    2.011075   -1.233078
H      3.170587   -0.756996    1.963311
H      0.734271    1.283185   -1.766493
H      0.943845   -1.516601    1.485933
H     -1.201120    0.062766   -1.223029
