31

C     -3.777445   -0.681769    0.302468
C      4.301961   -1.809118   -0.624753
C     -0.340844    3.413005    0.802838
C      2.463436    0.388839   -0.011251
C      1.532316    1.384639    0.255345
C     -1.644037   -0.158792   -0.884251
C      0.705609   -0.977609   -0.872727
C     -2.300148   -0.472959    0.465367
C     -0.198322    0.029437   -0.596263
C      2.052806   -0.816949   -0.584912
C      0.202381    1.214393   -0.033103
N     -1.714520   -1.769853    0.849555
O      2.921838   -1.847962   -0.873927
O     -0.740586    2.186613    0.220833
H     -4.271798   -0.910729    1.274513
H     -3.952173   -1.521328   -0.388495
H     -4.193947    0.253416   -0.157559
H      4.548680   -1.179331    0.257911
H      4.590694   -2.856318   -0.346114
H      4.811082   -1.471187   -1.548818
H     -0.136609    3.235688    1.900216
H     -1.173715    4.147294    0.699368
H      0.561322    3.845013    0.367463
H      3.496787    0.548606    0.224882
H      1.880299    2.318359    0.706549
H     -1.741512   -1.076971   -1.495977
H     -2.115349    0.734448   -1.344683
H      0.346697   -1.912842   -1.325443
H     -2.028434    0.313322    1.164992
H     -2.297029   -2.188058    1.615527
H     -1.789439   -2.361296   -0.019553
