25

C      3.362077    1.084679    0.628269
C      0.306101   -2.210360    0.447984
C      2.455512    0.279012   -0.276360
C     -3.335758    1.122922   -0.192811
C     -2.849018    0.617821   -1.375763
C     -2.609278    0.991285    0.967835
C     -1.614462   -0.025045   -1.374622
C     -1.369383    0.341764    0.950766
C      0.448931   -0.863464   -0.262671
C     -0.866014   -0.170844   -0.226758
O      1.355405   -0.112950    0.468484
H      3.106017    2.170285    0.554723
H      3.231306    0.698947    1.659587
H      4.434571    0.904730    0.361962
H     -0.538749   -2.149482    1.178089
H      0.025570   -2.945724   -0.355474
H      1.237007   -2.490805    0.943674
H      3.005827   -0.641684   -0.579361
H      2.161543    0.861433   -1.179525
H     -4.290374    1.616908   -0.208319
H     -3.412004    0.714394   -2.300863
H     -2.997862    1.391513    1.898097
H     -1.213597   -0.429632   -2.295285
H     -0.814466    0.248008    1.869308
H      0.781098   -1.003710   -1.300967
