22

C     -2.338057   -0.368846   -0.592899
C      2.345208   -0.392943   -0.489846
C     -0.686101    0.712428    0.864542
C      0.576065    1.180209    0.208503
C     -1.046735   -0.574220    0.186600
C      0.946179    0.131231   -0.786038
N      0.026822   -0.952411   -0.675236
Cl     0.690044    0.000000    0.000000
H     -2.112860    0.147149   -1.559813
H     -2.812649   -1.350041   -0.837603
H     -3.003341    0.262974    0.047598
H      2.865293   -0.551523   -1.465589
H      2.319924   -1.363241    0.047802
H      2.898703    0.350257    0.139086
H     -1.459712    1.508651    0.737565
H     -0.485198    0.543793    1.950645
H      0.460605    2.156030   -0.292923
H      1.394311    1.299296    0.958370
H     -1.247467   -1.376648    0.940811
H      0.906575    0.510404   -1.835077
H      0.452435   -1.872550   -0.460313
H     -0.690044    0.000000    0.000000
