27

C      3.437079    0.299960   -0.329851
C      0.674101    0.853036   -1.451865
C      2.613490   -0.697258    0.370948
C     -3.794257    0.072698    0.528483
C     -3.415081   -1.001886   -0.230371
C     -2.876581    1.007352    0.921950
C      1.176797   -0.450163    0.593274
C     -2.076736   -1.098983   -0.577611
C     -1.544028    0.895733    0.566788
C      0.294199   -0.314617   -0.589509
C     -1.142488   -0.176262   -0.195214
H      3.683745    0.078285   -1.392377
H      2.994835    1.304928   -0.286808
H      4.460270    0.314737    0.169279
H      1.553369    0.615348   -2.037497
H      0.806969    1.760655   -0.824529
H     -0.157727    1.042164   -2.199146
H      2.718322   -1.697506   -0.164530
H      3.119335   -0.929068    1.361850
H     -4.835043    0.179799    0.818438
H     -4.144098   -1.736336   -0.537870
H     -3.147537    1.866035    1.521494
H      0.752205   -1.170826    1.352034
H      1.118334    0.537750    1.174151
H     -1.779735   -1.936837   -1.169584
H     -0.831884    1.645109    0.887296
H      0.342149   -1.263847   -1.198578
