48

C      4.621913    0.792470   -0.447829
C      4.371461   -1.279560   -1.934944
C     -0.556243    1.896367    2.129147
C     -2.718344    2.088612    0.118095
C     -2.425743   -2.707848    0.069111
C     -3.519669   -2.761870   -0.800693
C      2.871120   -0.834167   -0.083495
C     -0.464330    1.384986   -0.738701
C      2.398713   -0.044207    1.044939
C      0.869123    1.496108   -0.034145
C     -0.613493   -1.551999    1.281471
C     -3.335939   -0.409998   -1.072170
C      3.907156   -0.457703   -0.790049
C     -1.065252    0.723275    1.407276
C     -1.820301   -1.516396    0.343165
C     -3.964396   -1.611237   -1.363700
C     -2.261543   -0.331343   -0.221761
C     -0.013963   -0.294344    0.934333
C     -1.679788    1.020816    0.039256
N      1.093717    0.447368    1.000602
O     -5.060476   -1.637765   -2.240309
H      5.349266    1.011274   -1.259166
H      3.908773    1.636693   -0.346402
H      5.214338    0.604464    0.465411
H      3.811588   -1.054944   -2.869797
H      5.446857   -1.075918   -2.189175
H      4.317955   -2.374684   -1.729510
H      0.518798    1.695605    2.411093
H     -1.037654    2.022958    3.148633
H     -0.704912    2.881432    1.657350
H     -2.684151    2.676770   -0.807929
H     -2.633933    2.658401    1.046025
H     -3.718561    1.579768    0.143996
H     -2.110880   -3.652916    0.489410
H     -3.995842   -3.717879   -1.012242
H      2.373203   -1.747640   -0.357434
H     -0.655615    2.445595   -1.101337
H     -0.429385    0.811051   -1.686564
H      3.092590    0.808642    1.308138
H      2.481458   -0.703692    1.962338
H      1.613211    1.191026   -0.836800
H      1.180628    2.482701    0.260707
H     -0.957721   -1.642293    2.321347
H      0.013339   -2.432640    1.040002
H     -3.757378    0.467191   -1.568019
H     -1.873491    0.294039    2.016528
H      0.009417   -0.488393   -0.206890
H     -5.405623   -0.788175   -2.668983
