62

C      4.998310   -0.652416    1.004623
C      5.445711    0.650772   -1.139409
C     -1.306700   -0.688867   -2.062926
C     -2.566408   -2.054803    0.352431
C     -2.472861    2.777731   -0.337412
C     -3.846343    2.805163   -0.360406
C      3.236265   -0.259346   -0.675549
C     -0.980741   -0.782033    1.709623
C      2.313924   -1.002713    0.183288
C      0.436668   -1.230414    1.509943
C     -0.304776    1.546967   -0.052164
C     -3.873776    0.443033    0.123293
C      4.488168   -0.098782   -0.287356
C     -0.679406   -0.864349   -0.708476
C     -1.787538    1.588097   -0.084965
C     -4.559021    1.634843   -0.129502
C     -2.497487    0.418965    0.145424
C      0.307908    0.238357   -0.377770
C     -1.731691   -0.814790    0.401058
N      1.163159   -0.293625    0.651681
O     -5.952515    1.608293   -0.141485
C     -0.513727   -0.689206   -0.016855
C      0.468863    0.460243   -0.129036
C     -1.876976   -0.290143   -0.418982
C      1.831380    0.053843    0.266130
O     -2.223595   -0.276402   -1.619826
O     -2.789629    0.075749    0.548930
O      2.071041   -1.129710    0.649239
O      2.907493    0.911499    0.244516
H      5.150495   -1.749404    0.943313
H      5.957735   -0.174513    1.264179
H      4.302667   -0.430545    1.847315
H      4.899767    1.125755   -1.967667
H      6.202224   -0.073784   -1.517183
H      5.972089    1.421736   -0.532195
H     -1.780669   -1.650386   -2.352132
H     -2.113812    0.073133   -2.068211
H     -0.521766   -0.407104   -2.793966
H     -3.016242   -2.277558    1.351732
H     -3.317948   -2.052492   -0.461697
H     -1.884091   -2.925821    0.136361
H     -1.946659    3.697184   -0.519088
H     -4.432944    3.694096   -0.549902
H      2.916131    0.151371   -1.608000
H     -0.997300    0.196857    2.206033
H     -1.442687   -1.509166    2.435721
H      2.836697   -1.562092    0.996483
H      1.900900   -1.837604   -0.464680
H      0.515072   -2.269883    1.171197
H      0.922143   -1.208807    2.528885
H      0.019042    2.316184   -0.817330
H      0.049783    1.984377    0.910856
H     -4.385456   -0.485897    0.307291
H     -0.133768   -1.822499   -0.708004
H      0.941021    0.328473   -1.309710
H     -6.443274    2.478304   -0.325747
H     -0.167617   -1.480356   -0.734158
H     -0.486063   -1.137014    0.982987
H      0.119767    1.194811    0.662951
H      0.382784    0.981032   -1.081720
H     -3.604812    0.671249    0.363427
H      3.881091    0.654406    0.282398
