56

C      7.880263    2.628490    1.704160
C     -8.440546    2.015385    2.165331
C      7.341428    1.482700    0.838873
C      5.979541    1.877628    0.348458
C     -1.531716    0.150210   -0.027686
C     -2.804493   -0.253546   -0.702662
C     -0.499902   -0.915590   -0.095025
C     -3.385770   -1.474131   -0.065388
C     -0.190788   -1.252568   -1.490345
C     -4.689227   -1.887268   -0.722902
C      5.321342    0.835454   -0.531530
C      0.999072   -1.102661   -1.993305
C     -5.725298   -0.821314   -0.633654
C      5.132150   -0.469693    0.177767
C      2.153510   -0.589585   -1.251140
C     -5.992845   -0.515413    0.827230
C      4.507547   -1.560526   -0.604600
C      3.238210   -1.637499   -1.223070
C     -7.044916    0.560753    0.884607
O     -7.534751    1.038119   -0.151492
O     -7.450312    1.002531    2.121088
O      3.375736   -2.238648    0.128138
H      7.385345    2.572703    2.698470
H      8.975800    2.590961    1.748667
H      7.491807    3.576221    1.242940
H     -8.257309    2.800487    1.403300
H     -8.430188    2.468338    3.181242
H     -9.409976    1.535680    1.924166
H      8.028320    1.178969    0.054536
H      7.210938    0.637244    1.557137
H      5.279608    2.092555    1.167164
H      6.037961    2.813270   -0.263453
H     -1.731867    0.498315    1.020939
H     -1.159592    1.059264   -0.597835
H     -2.570317   -0.463984   -1.779230
H     -3.562777    0.574495   -0.671069
H     -0.935435   -1.846609    0.398413
H      0.381130   -0.710569    0.550330
H     -2.705245   -2.368257   -0.176615
H     -3.476344   -1.312947    1.011849
H     -1.021520   -1.660884   -2.130213
H     -5.056798   -2.802671   -0.212752
H     -4.444127   -2.150484   -1.771101
H      5.845765    0.678800   -1.480252
H      4.305865    1.257316   -0.744643
H      1.192364   -1.370146   -3.051880
H     -5.428747    0.073435   -1.177587
H     -6.690331   -1.221369   -1.078015
H      6.163561   -0.765060    0.540109
H      4.575851   -0.324814    1.155315
H      2.000814   -0.189726   -0.263511
H      2.501311    0.307495   -1.866287
H     -6.343552   -1.429301    1.340748
H     -5.073574   -0.096598    1.284617
H      5.223097   -2.398868   -0.824284
H      3.059929   -2.476087   -1.940247
