26

C      1.009140   -1.191170   -1.355780
C     -3.675355    0.982596   -0.244465
C     -3.392095    0.302354    0.899240
C     -2.665923    1.343526   -1.102752
C     -2.087512   -0.025416    1.197043
C     -1.353588    1.004767   -0.787072
C      3.656551    0.210983    0.179321
C      1.330959   -0.095131   -0.345675
C     -1.035807    0.316497    0.363151
C      0.314760   -0.073761    0.768397
N      2.586292   -0.525264    0.294917
O      4.806647   -0.244636    0.803120
O      0.267672   -1.400478    1.251567
H      0.378714   -0.781154   -2.163450
H      1.965396   -1.582379   -1.736981
H      0.471296   -2.037052   -0.877064
H     -4.722698    1.236192   -0.466652
H     -4.179218    0.006470    1.594276
H     -2.926793    1.881110   -1.998556
H     -1.909253   -0.567336    2.118562
H     -0.575443    1.288725   -1.454209
H      3.606629    1.130138   -0.387312
H      1.452255    0.868481   -0.859595
H      0.669635    0.627919    1.531438
H      4.797733   -0.968354    1.508781
H      1.210004   -1.707626    1.269747
