26

C      3.500201   -0.511307   -0.652032
C     -3.128888   -0.281264   -0.968473
C     -2.263658    0.227350    1.838797
C      3.222963    0.875372   -0.147838
C     -2.190658   -1.192153   -0.219368
C      1.801754    1.279728   -0.425222
C     -1.371548   -0.437625    0.816703
C      0.878329    0.360124    0.234557
O      1.330456   -0.594914    0.910235
O     -0.505124    0.458492    0.173985
H      3.464423   -1.210063    0.182757
H      2.775502   -0.812801   -1.439168
H      4.523627   -0.537185   -1.106642
H     -2.709180    0.023404   -1.957032
H     -3.352579    0.650382   -0.419610
H     -4.096832   -0.780820   -1.184876
H     -2.603682    1.200740    1.419428
H     -3.118927   -0.462123    2.036002
H     -1.748555    0.353237    2.814920
H      3.957026    1.600150   -0.596673
H      3.423987    0.908049    0.946148
H     -1.492470   -1.652068   -0.934241
H     -2.803266   -1.976465    0.270474
H      1.626689    1.413369   -1.500546
H      1.658451    2.302183    0.031518
H     -0.778040   -1.203791    1.357222
