23

C     -2.473123    0.200479    0.725228
C     -1.652736   -0.536601   -1.447490
C      1.800249   -1.582139    0.715158
C      1.786585    1.661412   -0.230864
C      0.851014   -0.688482    0.034940
C      0.813028    0.739823    0.394546
C     -1.209798   -0.069567   -0.075295
I      3.837041   -1.036840    0.451550
I      1.370870    3.625616    0.566811
O     -0.446295   -1.077182    0.470597
O     -0.473035    1.081357   -0.096216
H     -2.826866   -0.721433    1.208471
H     -2.249971    1.008330    1.462518
H     -3.231911    0.579585    0.009778
H     -1.993467   -1.603793   -1.305502
H     -2.513261    0.047650   -1.823945
H     -0.824404   -0.581581   -2.164708
H      1.687021   -2.600262    0.235636
H      1.590726   -1.759617    1.789556
H      2.835144    1.487183   -0.016669
H      1.631422    1.758881   -1.330102
H      0.922272   -0.828861   -1.063320
H      0.769498    0.896042    1.489321
