34

C     -4.615343    0.286422    1.001957
C     -3.959511   -0.517653   -0.109888
C     -2.475116   -0.344451   -0.126641
C     -2.069371    1.104406   -0.337345
C     -0.535155    1.193639   -0.341423
C     -0.071929    0.349098   -1.440925
C      0.716003   -0.675902   -1.270320
C      1.259039   -1.150333   -0.002012
C      3.180886    0.345399   -0.274617
C      4.542218    0.346938    0.427898
C      2.781813   -1.114567   -0.032416
C      4.212623   -0.445086    1.642527
O      4.719474   -0.307226    2.786668
O      3.246748   -1.355050    1.267125
H     -4.115804    0.114052    1.966086
H     -5.677868   -0.033285    1.036506
H     -4.634723    1.374928    0.746177
H     -4.171868   -1.586008    0.088217
H     -4.401835   -0.203321   -1.071741
H     -2.021201   -0.679175    0.822727
H     -2.074813   -0.936971   -0.969817
H     -2.463603    1.480421   -1.292399
H     -2.501207    1.717126    0.480800
H     -0.228356    0.922562    0.665373
H     -0.251722    2.252960   -0.596623
H     -0.408197    0.597596   -2.450313
H      1.008779   -1.250489   -2.166968
H      0.952379   -0.653627    0.906299
H      0.968760   -2.240326    0.086668
H      2.494687    1.008864    0.284672
H      3.274542    0.582269   -1.333377
H      4.882630    1.361571    0.658062
H      5.229976   -0.200969   -0.248275
H      3.207064   -1.759756   -0.802662
