21

C      2.761976   -0.446402   -0.178360
C      1.819401    0.614995    0.293764
C     -1.635678   -0.943787   -0.110856
C     -0.222770   -0.850008    0.337846
C     -2.460991    0.277709    0.110632
C      0.399970    0.426639   -0.137204
C     -1.689515    1.446523    0.577115
O     -2.307631    2.382430    1.119595
O     -0.340717    1.501477    0.419612
H      2.360207   -1.126466   -0.927859
H      3.662064    0.038664   -0.611126
H      3.154699   -1.068159    0.678043
H      1.896353    0.662668    1.400459
H      2.144111    1.614726   -0.072332
H     -2.113362   -1.794451    0.424729
H     -1.638541   -1.221885   -1.204830
H      0.318890   -1.723098   -0.085841
H     -0.151954   -0.966548    1.447227
H     -2.955600    0.571043   -0.838764
H     -3.289247    0.112787    0.849195
H      0.288336    0.491144   -1.223914
