36

C     -2.848737    2.537176   -2.129680
C     -3.314307    1.434469   -1.228605
C     -3.814817   -1.804003    1.439610
C     -2.692081   -2.400966    1.962116
C     -3.654706   -0.758944    0.578538
C     -1.432512   -1.948475    1.619327
C      4.544641    0.679056   -0.339129
C      3.591361    1.513071    0.465760
C      2.570429   -0.527245   -1.000580
C      1.128210   -1.083486    0.967944
C      2.433396   -0.481627    0.502596
C     -2.399520   -0.306873    0.235985
C     -1.253181   -0.897939    0.754206
N      3.919636   -0.141897   -1.326753
O     -2.217261    0.745930   -0.630937
O      2.463816    0.854204    0.875589
O      0.014485   -0.449790    0.415220
H     -2.492750    3.415849   -1.542726
H     -3.679415    2.838475   -2.798611
H     -2.013740    2.182100   -2.780636
H     -3.996679    0.752532   -1.742496
H     -3.882237    1.911851   -0.386705
H     -4.787088   -2.203592    1.745861
H     -2.813909   -3.234481    2.649036
H     -4.539475   -0.291472    0.169248
H     -0.590797   -2.469139    2.071576
H      5.097961   -0.011042    0.358379
H      5.293200    1.365601   -0.788835
H      3.374067    2.485180   -0.049594
H      4.153223    1.819885    1.396278
H      2.388727   -1.550256   -1.403250
H      1.808142    0.134172   -1.421807
H      1.108588   -1.066328    2.071457
H      1.153612   -2.164130    0.670982
H      3.309895   -1.007846    0.921118
H      4.069822    0.129978   -2.300481
