41

C      4.748572   -1.622955   -0.218687
C     -0.400195   -2.528792   -0.000129
C      0.108586    2.405442   -0.001937
C     -2.741779   -2.825084   -0.287802
C     -2.104613    3.181559   -0.177403
C      3.988267   -0.369714   -0.554189
C     -1.488246   -3.366139   -0.128707
C     -0.774160    3.456644   -0.077578
C     -0.574129   -1.187757   -0.023045
C     -0.327722    1.117127   -0.034127
C     -2.920434   -1.427621   -0.319801
C     -2.600020    1.857608   -0.205588
C     -1.838497   -0.628127   -0.173244
C     -1.700861    0.831779   -0.147530
C      0.443735   -0.124113    0.060221
C      4.861067    0.828842   -0.396197
N      1.648591   -0.218066    0.182743
N     -1.327163   -4.783160   -0.097138
N     -0.320345    4.789882   -0.061451
N     -4.206729   -1.088455   -0.769550
N     -3.999652    1.758294   -0.022651
O      4.508280    1.695839    0.442975
O      6.020776    1.042752   -1.108131
O     -2.408987   -5.598334   -0.225805
O     -0.191546   -5.254466    0.044098
O     -1.226998    5.808776   -0.140930
O      0.896252    5.014093    0.028271
O     -5.318751   -1.829588   -0.350531
O     -4.482890   -0.280169   -1.693091
O     -4.812727    2.706795   -0.649048
O     -4.612169    1.037619    0.777812
O      2.868360   -0.297061    0.306525
H      5.666104   -1.740467   -0.822469
H      4.056236   -2.485302   -0.296664
H      5.007330   -1.564701    0.877378
H      0.606019   -2.936697    0.122132
H      1.181826    2.611114    0.083598
H     -3.590518   -3.491901   -0.381739
H     -2.854696    3.967841   -0.245552
H      3.703735   -0.398989   -1.627907
H      6.510090    1.935654   -1.122854
