48

C      2.262299   -2.086963   -0.727553
C      1.971729   -1.090195    2.226613
C     -6.012836   -0.185937    0.389348
C     -5.672578    0.958875   -0.294358
C     -5.081583   -1.170224    0.641921
C     -4.375297    1.105807   -0.725459
C     -3.797932   -0.980965    0.192645
C      2.847045    1.684158   -1.664375
C      4.017993    2.105279   -1.065803
C      0.177744    0.321486    1.349563
C     -1.065201   -0.521466    1.027588
C      0.750180    0.390186   -1.627875
C      3.510843    0.829639    0.912909
C     -1.998812    0.343841   -0.988968
C      1.033462   -1.549804   -0.052983
C     -3.389221    0.137994   -0.496322
C      2.002812    0.834500   -0.978129
C      4.338673    1.676525    0.211929
C      2.346531    0.424689    0.289458
C      0.126771   -0.820979   -1.051328
C      1.401397   -0.488950    0.977455
N     -1.128738   -0.614053   -0.398953
O      5.520640    2.105710    0.807798
H      2.484966   -1.612699   -1.697853
H      3.182731   -1.973116   -0.104812
H      2.159607   -3.183332   -0.934524
H      1.876069   -0.368874    3.061116
H      1.303082   -1.956028    2.500424
H      3.007814   -1.432375    2.128521
H     -7.049961   -0.304325    0.734536
H     -6.420367    1.741408   -0.493192
H     -5.384742   -2.069755    1.188950
H     -4.115154    2.007401   -1.261763
H     -3.091023   -1.764434    0.399486
H      2.601706    2.021921   -2.661856
H      4.727742    2.772799   -1.546950
H      0.076691    1.241294    0.731869
H      0.181951    0.625714    2.409258
H     -1.009493   -1.499472    1.549817
H     -1.908429    0.032032    1.449495
H      1.039773    0.202837   -2.705871
H     -0.001091    1.201790   -1.698858
H      3.718640    0.468313    1.911789
H     -2.036939    0.290934   -2.079869
H     -1.725105    1.380113   -0.631794
H      0.479895   -2.385330    0.378735
H     -0.048912   -1.563304   -1.865506
H      6.164625    2.717333    0.359085
