41

C      4.203127    1.278034   -0.795470
C      0.438306    1.995706    0.511888
C     -0.627851   -2.851317   -0.216304
C     -1.669679    3.001443    0.381430
C     -2.927855   -2.836805   -0.612732
C      3.826861   -0.060641   -0.211953
C     -0.330681    3.127848    0.565828
C     -1.779019   -3.548750   -0.493194
C     -0.153015    0.777145    0.266540
C     -0.629866   -1.487043   -0.056178
C     -2.310483    1.764081    0.135924
C     -2.970996   -1.429763   -0.462777
C     -1.535857    0.651220    0.065546
C     -1.815893   -0.765445   -0.169443
C      0.449065   -0.521072    0.210524
C      4.946274   -0.491335    0.689114
N      1.654291   -0.887932    0.336862
N      0.305694    4.381432    0.810487
N     -1.723734   -4.962618   -0.638650
N     -3.720389    1.823615    0.249158
N     -4.189263   -0.849227   -0.903847
O      6.105245   -0.612531    0.191694
O      4.663888   -0.739275    2.020023
O     -0.468619    5.524667    0.862431
O      1.528365    4.490528    0.980503
O     -0.534391   -5.636419   -0.505593
O     -2.769691   -5.586666   -0.887237
O     -4.374948    2.917983   -0.259036
O     -4.345116    1.018532    0.956752
O     -5.369114   -1.467007   -0.626427
O     -4.177593    0.097672   -1.699268
O      2.653176    0.013134    0.565033
H      4.536564    1.154706   -1.863206
H      5.068603    1.735510   -0.240124
H      3.377277    2.001806   -0.796149
H      1.508226    2.076159    0.668613
H      0.330102   -3.379172   -0.113419
H     -2.271261    3.888267    0.422238
H     -3.847688   -3.344722   -0.826542
H      3.683522   -0.839207   -1.014798
H      5.264418   -1.422541    2.501757
