48

C      1.256842   -2.764463    1.891970
C      3.454121    3.739617   -0.640128
C      4.989021   -0.029526    1.814766
C     -2.749483   -1.654007   -1.826657
C     -2.744201   -0.691112   -2.957599
C     -0.234105    0.308194   -1.975288
C      0.955465   -0.611163   -0.032953
C      1.654472    1.495687   -0.866645
C     -3.311244   -1.625655    0.601652
C     -2.137219    0.833807    0.875514
C      0.816214    0.409608   -0.941651
C     -2.729592   -0.985893   -0.502018
C     -2.138124    0.250564   -0.370179
C     -1.541231    0.885813   -1.569112
C     -3.311347   -1.043603    1.848710
C     -2.718761    0.192465    1.975692
C      1.918906   -0.587966    0.967312
C      2.630350    1.553422    0.120987
C      2.743950    0.512852    1.017368
N     -2.500441    0.675953   -2.636820
O     -3.892978   -1.682717    2.953662
O     -2.718332    0.782192    3.237300
O      2.061563   -1.623779    1.890828
O      3.504244    2.643891    0.230356
O      3.708762    0.519472    2.031456
H      0.227434   -2.562310    2.271595
H      1.209256   -3.153313    0.837376
H      1.759842   -3.570067    2.479045
H      2.412276    4.064776   -0.818139
H      4.019578    3.583599   -1.580170
H      3.945736    4.598697   -0.107564
H      5.259751   -0.799650    2.558121
H      5.714878    0.820949    1.832495
H      5.016966   -0.468632    0.790207
H     -3.666824   -2.315250   -1.860238
H     -1.906931   -2.405282   -1.894186
H     -2.045420   -1.067573   -3.736783
H     -3.765157   -0.721900   -3.443180
H     -0.266833   -0.720243   -2.357842
H      0.132035    0.933449   -2.842826
H      0.314941   -1.486889   -0.056067
H      1.605183    2.335504   -1.545334
H     -3.773448   -2.599925    0.480847
H     -1.681440    1.796106    0.998018
H     -1.425882    1.979612   -1.456689
H     -3.417102    1.165448   -2.422072
H     -4.323543   -2.590871    2.839869
H     -2.312148    1.680114    3.432890
