33

C      5.067428   -0.260684    0.304350
C     -4.743659    1.737864    0.363440
C      3.606256   -0.394901    0.680075
C      2.796678    0.617603   -0.082642
C      1.328416    0.559426    0.226365
C     -1.491629    0.375850   -0.530854
C     -3.559757   -0.807352   -0.025182
C     -2.937168    0.302874   -0.360197
C      0.693739   -0.749977   -0.083052
C     -0.778296   -0.672652    0.274865
C     -2.803392   -2.016454    0.189366
O      0.850786   -1.071606   -1.416964
O     -3.313865   -3.116884    0.508952
O     -3.722682    1.460578   -0.557716
O     -1.403300   -1.943796    0.026576
H      5.668052    0.228466    1.098105
H      5.183821    0.361408   -0.616964
H      5.527742   -1.246954    0.093216
H     -4.362728    1.871284    1.400417
H     -5.209829    2.717803    0.094376
H     -5.535984    0.983033    0.351954
H      3.481988   -0.347694    1.761396
H      3.296461   -1.427218    0.366318
H      3.157863    1.628819    0.201038
H      2.952260    0.451353   -1.147283
H      1.115424    0.858924    1.251978
H      0.850339    1.332091   -0.444919
H     -1.164981    1.383998   -0.176989
H     -1.184543    0.281572   -1.605820
H     -4.637200   -0.829875    0.093188
H      1.153657   -1.547901    0.552520
H     -0.930980   -0.449913    1.345357
H      1.049085   -0.269088   -1.955227
