26

C      3.482602   -0.406461    0.574748
C     -3.298141    0.039693   -0.201685
C      2.320900    0.260012   -0.146561
C      1.257443   -0.749505   -0.446789
C      0.128321   -0.077679   -1.164100
C     -0.527580    1.023154   -0.404613
C     -1.119582    0.582746    0.907769
C     -2.179683   -0.489005    0.673935
Br    -2.857588   -1.089987    2.379786
H      3.058570   -1.022475    1.374812
H      4.000710   -1.033755   -0.202504
H      4.145888    0.407589    0.927630
H     -4.281263   -0.235011    0.246337
H     -3.183998   -0.399008   -1.207964
H     -3.267389    1.152256   -0.295810
H      1.903957    1.078114    0.481386
H      2.689084    0.685707   -1.082542
H      0.935777   -1.318426    0.446302
H      1.692438   -1.498736   -1.144958
H     -0.595355   -0.802042   -1.601263
H      0.592975    0.409386   -2.074331
H     -1.376727    1.397729   -1.021090
H      0.188769    1.842051   -0.225837
H     -0.401289    0.173249    1.614554
H     -1.648719    1.426502    1.393769
H     -1.660120   -1.356097    0.199019
