11

C     -1.284063    0.032281    0.228886
C      1.242207    0.507178   -0.184206
C      0.184332   -0.250545    0.522589
N      0.893157   -0.840337   -0.594769
H     -1.574609    0.997421    0.697359
H     -1.887568   -0.805275    0.635424
H     -1.472134    0.103120   -0.851512
H      2.231445    0.567263    0.302048
H      0.924457    1.365759   -0.794197
H      0.335230   -0.677011    1.530195
H      0.407546   -0.999852   -1.491818
