22

C     -0.784108   -0.376748    1.226929
C     -1.581539    0.485037    0.305584
C      0.180487   -1.277295    0.537338
C     -1.093990    0.703382   -1.056967
C      0.875062   -0.575259   -0.540654
C      1.968472    0.269082   -0.119709
N      0.007631   -0.059552   -1.592764
O      3.137588   -0.043832   -0.033087
O      1.743130    1.620153    0.293189
Cl     0.685898    0.000000    0.000000
H     -1.416741   -1.010717    1.877132
H     -0.195864    0.262328    1.959410
H     -2.635657    0.068701    0.332824
H     -1.697316    1.483186    0.817181
H     -0.229353   -2.209250    0.208112
H      1.005246   -1.514233    1.281387
H     -0.831317    1.792218   -1.235587
H     -1.948578    0.535565   -1.754707
H      1.398288   -1.445575   -1.134059
H     -0.309947   -0.783327   -2.271068
H      2.408505    2.076136    0.899518
H     -0.685898    0.000000    0.000000
