43

C     -5.078537   -0.002668    2.116620
C      4.439070    1.921844    1.463575
C     -3.845462   -0.287016    1.565335
C      3.332397    1.142921    1.101359
C     -5.571311    1.525271    0.400796
C      5.691355    1.041581   -0.339741
C     -2.564299    1.035375   -1.504954
C      3.169196   -1.132678   -1.649574
C     -1.226149   -1.869510   -1.049381
C     -5.965918    0.891466    1.567083
C      5.618288    1.887763    0.766920
C     -3.456540    0.350854    0.388810
C      3.415658    0.308847    0.004557
C     -2.353600    0.204868   -0.432955
C      2.493809   -0.568359   -0.573446
C     -4.322102    1.242526   -0.172540
C      4.582611    0.264652   -0.700139
C     -1.199161   -0.661591   -0.078165
C      1.146761   -0.840695   -0.033778
C      0.889423   -2.306925   -0.076500
Br    -7.696116    1.208389    2.358747
Br     7.118866    2.971354    1.304332
N     -3.758760    1.659813   -1.335902
N      4.409155   -0.624525   -1.706953
N     -0.217773   -2.769626   -0.551618
N      0.085015   -0.016189   -0.494379
O      1.853540   -3.166220    0.396024
H     -5.342824   -0.546258    3.034443
H      4.340987    2.547649    2.309363
H     -3.155291   -0.986801    1.984306
H      2.401521    1.147102    1.627328
H     -6.239420    2.236611   -0.063114
H      6.622661    1.004377   -0.903601
H     -1.882350    1.190719   -2.355543
H      2.749652   -1.879579   -2.340021
H     -1.058948   -1.596463   -2.066937
H     -2.214682   -2.392640   -0.904428
H     -1.138276   -0.978065    0.919533
H      1.232463   -0.609666    1.081305
H     -4.207231    2.364042   -1.973520
H      5.171495   -0.842731   -2.401041
H      0.090976   -0.039740   -1.569822
H      1.639851   -4.030075    0.887615
