22

C      1.317373   -0.970938    0.290118
C     -0.050326   -1.613334    0.218108
C      1.325195    0.271284   -0.553840
C     -1.076080   -0.675509    0.835422
C     -0.065374    0.642595   -1.012881
C     -0.951897    0.687632    0.201879
O      1.825498    1.320382    0.225725
O     -2.355571   -1.192130    0.620569
O      0.000804    1.928189   -1.535372
O     -2.196227    1.219434   -0.118262
H      1.536608   -0.742522    1.346552
H      2.041284   -1.706658   -0.087333
H     -0.040907   -2.521867    0.856911
H     -0.294833   -1.870481   -0.823242
H      1.944997    0.159503   -1.462045
H     -0.870514   -0.613959    1.915785
H     -0.439950   -0.029574   -1.806314
H     -0.482203    1.394507    0.919183
H      2.806713    1.340221    0.133883
H     -2.719437   -1.585661    1.450912
H      0.857400    2.383753   -1.294878
H     -2.112552    2.175134   -0.320878
