38

C     -3.191080    1.784952   -0.896556
C     -4.505596   -0.295372   -0.591796
C     -3.350846    0.736202    1.314418
C      5.692627    0.730994   -0.491122
C      5.164254   -0.400061   -1.091123
C      4.845066    1.308502    0.589789
C      4.002577   -0.992389   -0.792451
C      2.768411    1.388673    1.633569
C     -0.894946   -0.164952    0.230194
C      0.974905   -1.336969    1.185850
C      3.802154    0.722885    0.801842
C     -0.101522   -1.514158    0.158154
C      3.171408   -0.468956    0.258778
C     -3.209750    0.464816   -0.284188
N      1.782877    2.040586    2.408490
N     -2.158454   -0.459156   -0.430584
O     -1.074757   -2.432374    0.680407
O      2.108957   -0.856573    0.734574
H     -4.210878    2.012536   -1.423927
H     -3.094079    2.692845   -0.187500
H     -2.403658    1.980220   -1.690852
H     -5.326262    0.145823   -0.040188
H     -4.288591   -1.366019   -0.289849
H     -4.713060   -0.266822   -1.685949
H     -2.494360    1.437066    1.464505
H     -4.293424    1.257216    1.384593
H     -3.267689   -0.250388    1.712427
H      6.597493    1.210358   -0.711744
H      5.806371   -0.816109   -1.897894
H      5.246430    2.188672    1.022201
H      3.612265   -1.873121   -1.269169
H     -1.010886   -0.027765    1.322548
H     -0.294227    0.592662   -0.298356
H      0.483718   -0.540720    1.931774
H      0.988030   -2.257025    1.842991
H      0.150381   -1.666975   -0.830770
H     -2.445275   -1.401331   -0.122407
H     -0.868587   -3.307773    0.201113
