62

C     -1.631701   -3.422174    1.159420
C     -2.826186   -3.424412   -0.957673
C     -1.855868    4.995873    0.686864
C      3.592958    2.256106    0.595343
C     -2.507004    1.300679   -1.599029
C      1.662567   -1.625529    2.080523
C      3.968198   -0.927734   -0.790676
C     -2.903091   -0.970638    0.264654
C      3.559376    0.470407   -1.071576
C      3.168815   -1.675634    0.197425
C     -2.969623    0.473568    0.593164
C      1.567874    1.829458   -0.647879
C     -1.562850   -2.910047   -0.249933
C     -1.612083    3.751177   -0.086924
C     -1.605597   -1.413146   -0.350931
C      0.448508    0.907451   -1.073715
C     -0.498710   -0.702380    0.340571
C     -0.570657    0.769809   -0.031898
C      0.847304   -1.087603   -0.149063
C      2.741899    1.126575   -0.015781
C     -1.928890    1.298589   -0.231665
C      1.989307   -0.919694    0.779201
O     -0.996170    3.703339   -1.155958
O      1.048533   -0.354073   -1.275023
O     -2.085900    2.566766    0.386118
O      2.389637    0.335970    1.054358
H     -1.072886   -4.379362    1.200057
H     -1.158274   -2.752618    1.906882
H     -2.676932   -3.695726    1.459206
H     -2.684314   -4.460050   -1.320459
H     -3.679039   -3.457834   -0.237814
H     -3.127102   -2.738967   -1.763077
H     -2.925306    5.050388    0.915039
H     -1.582564    5.843407    0.042275
H     -1.311617    4.983731    1.657257
H      3.518973    3.176244    0.011324
H      3.293084    2.465326    1.626529
H      4.663483    1.957791    0.624790
H     -1.848495    1.366272   -2.449905
H     -3.170863    2.220498   -1.672157
H     -3.216278    0.467907   -1.803150
H      1.015642   -0.991401    2.716171
H      2.624666   -1.709457    2.659161
H      1.228889   -2.626514    1.907195
H      3.940044   -1.500644   -1.764956
H      5.059996   -0.980463   -0.502248
H     -3.049226   -1.570892    1.186805
H     -3.725862   -1.281269   -0.434846
H      3.040880    0.536812   -2.075942
H      4.509373    1.054150   -1.275911
H      3.814857   -2.034705    1.051571
H      2.743569   -2.629787   -0.226692
H     -2.840628    0.658564    1.676519
H     -3.979287    0.846787    0.332374
H      1.944257    2.354662   -1.539793
H      1.203175    2.626160    0.059904
H     -0.721810   -3.377467   -0.748318
H     -1.533380   -1.173498   -1.433157
H      0.092897    1.157228   -2.105971
H     -0.556879   -0.865101    1.439062
H     -0.165315    1.274647    0.909251
H      0.901631   -2.167519   -0.476894
