20

C     -2.555817   -0.939866   -0.935150
C     -0.740011    1.979096    0.624079
C     -1.736044    1.201648    0.034345
C      0.516511    1.455867    0.883118
C     -0.228205   -0.613635   -0.037650
C      2.858010   -0.851387   -0.422560
C     -1.483660   -0.108869   -0.302280
C      0.775525    0.151768    0.550817
C      2.095884   -0.496123    0.791405
O      3.257313    0.153052    0.477164
H     -3.287096   -1.257282   -0.152230
H     -3.017231   -0.418913   -1.775908
H     -2.090324   -1.889110   -1.300546
H     -0.932567    3.016805    0.893117
H     -2.710866    1.622345   -0.161891
H      1.275044    2.065228    1.337822
H     -0.049133   -1.652539   -0.311659
H      2.551237   -0.405799   -1.409474
H      3.392651   -1.809299   -0.425604
H      2.108778   -1.202989    1.643084
