62

C      1.551548    3.490852   -1.162670
C      0.331309    3.928985    1.003256
C      2.549140   -4.400958   -1.790908
C     -2.812417   -2.423005   -1.393624
C      2.914081   -1.124778    1.257775
C     -2.296833    1.991864   -0.880930
C     -4.201769   -0.247883    0.700032
C      2.958181    1.356797    0.212558
C     -3.419831   -1.562319    0.781326
C     -3.180007    0.826761    1.028156
C      2.955134    0.197335   -0.732927
C     -1.083436   -2.198370    0.294472
C      1.434522    3.211609    0.296980
C      2.261707   -3.333013   -0.782326
C      1.573509    1.745017    0.668333
C     -0.109932   -1.241912    0.936273
C      0.503991    0.887323    0.046603
C      0.802633   -0.575174   -0.041316
C     -0.779653    0.902870    0.825632
C     -2.310839   -1.521323   -0.249926
C      2.209830   -1.008943   -0.058868
C     -2.030262    0.778073    0.017587
O      1.792598   -3.678260    0.316944
O     -0.748586   -0.234260    1.645137
O      2.479694   -2.012567   -0.989387
O     -2.086213   -0.302668   -0.800445
H      2.138697    2.721608   -1.658706
H      2.010271    4.507826   -1.290273
H      0.532974    3.613260   -1.623226
H     -0.652503    3.885238    0.540944
H      0.382718    3.668073    2.075689
H      0.594038    5.036950    0.994231
H      1.635086   -4.893739   -2.136719
H      3.296409   -5.099569   -1.351284
H      3.036379   -3.948217   -2.677653
H     -1.999290   -2.697512   -2.069243
H     -3.635498   -1.879461   -1.889951
H     -3.289563   -3.334296   -0.938648
H      2.951853   -2.173350    1.613347
H      4.008943   -0.854624    1.158637
H      2.510887   -0.426808    1.998461
H     -2.643604    2.819427   -0.249142
H     -3.180513    1.714537   -1.514700
H     -1.429835    2.248432   -1.512209
H     -4.922827   -0.262437    1.538790
H     -4.652785   -0.087981   -0.276389
H      3.500382    2.184294   -0.273023
H      3.535721    1.128669    1.140493
H     -2.941798   -1.575574    1.772396
H     -4.073152   -2.432842    0.689035
H     -3.623341    1.826867    1.125729
H     -2.814311    0.563543    2.062391
H      2.440824    0.358599   -1.676683
H      3.971213   -0.155431   -0.888660
H     -0.571320   -2.675846   -0.567702
H     -1.413160   -3.014465    0.964116
H      2.381506    3.693367    0.745413
H      1.431969    1.705199    1.766328
H      0.415885   -1.827815    1.736126
H      0.293921    1.352269   -0.948172
H      0.397717   -0.883784   -1.062395
H     -0.881992    1.743541    1.534914
