20

C      3.292728    0.173530    0.024904
C      1.027638    0.595732   -0.979412
C      1.172758   -0.800470    0.914470
C     -0.345955    0.402990   -0.988781
C     -0.205767   -0.993965    0.905149
C     -3.204957    0.735736    0.235688
C      1.809454   -0.009359   -0.018936
C     -0.982466   -0.392183   -0.049917
C     -2.449858   -0.531273   -0.149206
O     -3.254323   -0.437347    0.950370
H      3.554657    1.151045    0.477902
H      3.661806    0.114446   -1.021873
H      3.703364   -0.683150    0.604123
H      1.530604    1.214256   -1.708184
H      1.738282   -1.290644    1.679391
H     -0.934105    0.890266   -1.754190
H     -0.692395   -1.610442    1.634349
H     -2.640134    1.547965    0.745944
H     -3.978443    1.022691   -0.479468
H     -2.802885   -1.099823   -1.022322
