52

C     -2.513566    2.609513    1.474438
C     -2.346273    0.393640    2.454308
C     -2.557954   -1.732530   -2.817456
C      3.816223   -3.704240    0.826878
C      2.983090    3.804878   -1.058769
C      4.346309   -2.463757    0.540787
C      2.457495   -3.811569    1.042541
C      2.268547    2.979680   -1.904282
C      3.106511    3.456504    0.275121
C      3.490187   -1.359336    0.479181
C      1.612373   -2.699157    0.977987
C      1.691585    1.823831   -1.402447
C      2.523113    2.300579    0.751518
C     -3.101039   -1.057063   -0.529314
C     -2.818473    0.432471   -0.542742
C     -0.704506   -1.176388   -1.223410
C     -1.689156    1.346698    1.497250
C     -2.085511   -1.796750   -1.385669
C      2.147677   -1.463392    0.691923
C      1.792649    1.444246   -0.082002
C     -1.521951    0.779755    0.107968
C     -0.630403   -0.424018    0.079865
P      1.072223   -0.024223    0.605900
H     -2.192075    3.286575    0.634261
H     -2.366667    3.175911    2.415163
H     -3.585988    2.436233    1.364118
H     -2.435021    0.959532    3.428496
H     -3.382574    0.130954    2.185612
H     -1.687598   -0.449018    2.661541
H     -3.445937   -2.389370   -2.897101
H     -1.796599   -2.125388   -3.527178
H     -2.878622   -0.707967   -3.064244
H      4.442687   -4.586565    0.884488
H      3.433608    4.704263   -1.442750
H      5.406752   -2.342571    0.366141
H      2.072746   -4.794433    1.264164
H      2.134173    3.198648   -2.968745
H      3.668025    4.088225    0.980035
H      3.888800   -0.379056    0.256021
H      0.556888   -2.802876    1.148937
H      1.134033    1.176572   -2.054078
H      2.644608    2.063733    1.807701
H     -3.072455   -1.505845    0.461364
H     -4.125290   -1.193166   -0.931735
H     -2.766591    0.721383   -1.612639
H     -3.691259    0.968197   -0.119980
H      0.059353   -1.973069   -1.190573
H     -0.554951   -0.527503   -2.107430
H     -0.701749    1.616044    1.924626
H     -2.014729   -2.856886   -1.089749
H     -1.037215    1.584892   -0.490890
H     -1.045501   -1.136820    0.854849
