59

C     -4.998575    1.057207   -0.858863
C     -6.227297    0.583570   -1.521765
C      4.131532    0.503644    1.194186
C     -3.851302    0.163470   -1.239410
C      4.090824    0.649719   -0.263206
C      5.399063    0.653226    1.926565
C     -6.683537   -0.768639   -1.198099
C     -2.549973    0.599144   -0.561413
C      2.651349    0.393340   -0.768639
C      6.497997   -0.311758    1.742486
C     -7.148355   -1.149043    0.132132
C     -1.507981   -0.371098   -1.028410
C      1.748969    1.400845   -0.156188
C      7.077961   -0.515082    0.388393
C     -6.255128   -1.080142    1.293148
C     -0.185458   -0.104153   -0.405226
C      0.334202    1.245342   -0.719887
C      8.254893   -1.460496    0.451281
O     -5.120693   -1.886289    1.120925
O     -0.233386   -0.216340    0.994882
O     -0.442817    2.303485   -0.204657
O      8.580726   -1.926531    1.542246
O      8.909126   -1.759054   -0.706272
H     -5.051120    1.280643    0.207235
H     -4.738692    2.055132   -1.386571
H     -6.028885    0.660732   -2.647047
H     -7.095631    1.296712   -1.327985
H      3.659251   -0.464351    1.551527
H      3.424033    1.275655    1.643597
H     -3.980646   -0.897007   -1.070670
H     -3.617105    0.269967   -2.343121
H      4.764125    0.100363   -0.897165
H      4.223437    1.761847   -0.541692
H      5.789728    1.727917    1.850558
H      5.101952    0.641454    3.041221
H     -5.886131   -1.539520   -1.494135
H     -7.509627   -1.056010   -1.951504
H     -2.598770    0.577303    0.526508
H     -2.380078    1.641079   -0.941638
H      2.387719   -0.657849   -0.491563
H      2.689619    0.425617   -1.865287
H      7.353809   -0.041137    2.451910
H      6.168104   -1.324048    2.175111
H     -7.635384   -2.196815    0.110493
H     -8.042645   -0.463823    0.369896
H     -1.464237   -0.293118   -2.143946
H     -1.866891   -1.400503   -0.772346
H      2.039637    2.440303   -0.342752
H      1.693741    1.292424    0.956310
H      7.310828    0.429885   -0.080911
H      6.340176   -1.158269   -0.207279
H     -6.825252   -1.539469    2.204783
H     -5.978753   -0.090784    1.626227
H      0.562699   -0.843565   -0.813664
H      0.342184    1.420116   -1.826854
H     -4.767422   -2.211485    1.989584
H     -0.606333    0.612208    1.379219
H     -0.032133    2.612624    0.647274
H      9.782554   -2.306288   -0.739533
