59

C     -3.083369   -0.962441   -1.360882
C     -4.315999   -0.118030   -1.488232
C      4.363445    1.795101    0.745934
C     -2.621067   -1.126484    0.068800
C      3.287167    0.729515    0.930182
C      4.581943    2.129579   -0.706458
C     -5.437187   -0.741319   -0.733079
C     -1.347587   -1.998834    0.098870
C      2.011595    1.242161    0.361740
C      5.017238    0.937165   -1.522090
C     -6.683498    0.058461   -0.856382
C     -0.862208   -2.182194    1.496355
C      0.847103    0.233583    0.482161
C      6.302092    0.370743   -1.012197
C     -6.476436    1.443105   -0.301837
C     -0.503968   -0.994576    2.275802
C      0.581143   -0.092685    1.890128
C      6.691893   -0.788812   -1.833518
O     -7.711163    2.129800   -0.445651
O     -0.306984   -1.322809    3.646732
O      0.464816    1.087468    2.656910
O      5.979944   -1.165495   -2.798456
O      7.878286   -1.449627   -1.498808
H     -3.288411   -1.981585   -1.762261
H     -2.276471   -0.548938   -2.003552
H     -4.590218   -0.093781   -2.568566
H     -4.074379    0.922469   -1.181254
H      5.301518    1.448661    1.204342
H      4.036912    2.710538    1.258366
H     -3.388254   -1.571047    0.704306
H     -2.407548   -0.111839    0.464283
H      3.267476    0.542180    2.032730
H      3.648239   -0.181750    0.436742
H      3.733592    2.656831   -1.139831
H      5.447464    2.845295   -0.724758
H     -5.613257   -1.757785   -1.172772
H     -5.221106   -0.838386    0.358624
H     -1.748532   -3.020032   -0.217643
H     -0.691819   -1.583304   -0.637689
H      1.750154    2.199653    0.851818
H      2.159334    1.439400   -0.703256
H      5.190525    1.300113   -2.554652
H      4.255364    0.141737   -1.555987
H     -7.503874   -0.456078   -0.319224
H     -6.912266    0.165779   -1.947903
H     -0.064358   -2.975850    1.489655
H     -1.716289   -2.713430    2.036725
H      0.033920    0.633642   -0.121880
H      1.258220   -0.667287   -0.092915
H      7.093648    1.142016   -0.968143
H      6.123637   -0.004967    0.033482
H     -5.683275    2.012302   -0.801023
H     -6.257707    1.390484    0.781843
H     -1.502386   -0.385774    2.367922
H      1.594474   -0.509221    2.289246
H     -8.362170    1.605234    0.085845
H     -0.164753   -2.308171    3.668642
H     -0.093266    1.697819    2.115456
H      8.008662   -2.358301   -1.950637
