36

C     -1.801517    1.969430    1.836424
C      3.962348    0.424987    1.079199
C     -0.418175   -1.742935   -0.444951
C     -3.009802   -0.911828    0.053907
C     -2.632764   -0.233980    1.333235
C     -2.286384   -0.353267   -1.149073
C      0.759528    0.245890    0.885341
C      0.029277    0.039504   -2.036959
C      3.579112    0.259108   -1.455227
C     -1.644809    0.859564    1.153681
C      3.151169    0.311539   -0.153680
C      1.771537    0.235166   -0.223723
C     -0.529948    0.676118    0.228408
C      1.436496    0.141749   -1.542254
C     -0.820379   -0.355756   -0.850241
O      2.541122    0.160186   -2.228693
H     -2.626302    2.084627    2.510489
H     -1.097196    2.772235    1.720256
H      5.019600    0.126260    0.843751
H      3.562481   -0.230480    1.885966
H      4.005156    1.476769    1.435793
H     -0.706843   -2.016921    0.573589
H      0.664944   -1.951336   -0.638182
H     -0.966420   -2.448814   -1.125609
H     -2.710957   -1.991878    0.153587
H     -4.096926   -0.915834   -0.151025
H     -3.591786    0.138284    1.795463
H     -2.209979   -0.931662    2.097883
H     -2.684609    0.630692   -1.445316
H     -2.456469   -1.086295   -1.986811
H      0.724349   -0.755195    1.308322
H      1.065755    0.940219    1.693695
H     -0.072415   -0.628989   -2.895534
H     -0.269294    1.100059   -2.283110
H      4.644132    0.300263   -1.710653
H     -0.284032    1.662523   -0.267948
