28

C      2.752138    0.375590   -1.005989
C     -1.511323    0.303031   -1.433811
C     -0.347264    1.889054    0.037574
C     -0.235099   -0.129695    1.998931
C      1.062426   -0.140960    1.170823
C     -1.265236   -1.675966    0.450028
C      1.534580   -0.060878   -1.285727
C     -1.303877   -0.238427    0.973860
C      0.029012   -1.742825   -0.281850
C     -0.663256    0.465508   -0.229519
C      0.595508   -0.383311   -0.250413
Cl     1.109657   -0.238450   -2.977467
O      0.542764   -2.703963   -0.809106
H      3.474541    0.623840   -1.801881
H      3.115374    0.514238    0.011345
H     -2.532032    0.685868   -1.196035
H     -1.642044   -0.745358   -1.755427
H     -1.135025    0.915553   -2.261656
H     -1.214661    2.539384   -0.224120
H      0.479073    2.195708   -0.654357
H      0.001519    2.111499    1.056895
H     -0.267713   -1.055841    2.637255
H     -0.302785    0.771129    2.623665
H      1.584692    0.832690    1.285589
H      1.720243   -0.952295    1.514522
H     -1.167595   -2.350828    1.347136
H     -2.133457   -1.922521   -0.162656
H     -2.280162    0.118225    1.222391
