123

C     -8.039878    1.316452    0.587362
C     -2.243910    4.791668   -4.908463
C     -0.223989    6.040002   -4.159081
C      0.818936    1.160673   -0.578861
C      0.100584    1.029467    1.749645
C     -5.486759    2.366298   -0.432614
C      8.588435    2.239271    2.664985
C     -2.185585   -3.398068    4.053894
C     -6.722041   -3.347488    3.488683
C     -6.680580    0.780277    1.037668
C     10.597554    0.156437   -3.016536
C     10.803840   -0.331008   -1.754063
C      9.303803    0.271011   -3.541944
C     -5.391565   -5.229190    0.226448
C     -6.525887   -5.563103    1.163227
C      9.724178   -0.712535   -0.994936
C      8.227128   -0.109491   -2.782339
C     -4.850185   -3.853858    0.401020
C     -7.315433   -4.284016    1.340030
C     -0.509177    3.726227   -3.497513
C      7.813454    0.676994    0.961522
C      7.248599   -1.003465   -0.722245
C     -0.848611   -1.624290   -0.132183
C      3.450285   -1.009109    2.558264
C     -1.519281    0.160641   -2.444602
C     -1.258916    4.977762   -3.790459
C     -0.336933    0.877799    0.306369
C     -5.667708    0.919372   -0.051651
C      7.395458    1.857698    1.783552
C     -1.344417   -3.405300    2.811444
C      8.431500   -0.604677   -1.502677
C      6.707237    0.178467    0.036375
C      3.302565   -0.981100    1.157319
C     -5.182677   -3.182631    1.691097
C     -1.249534   -0.225756    0.007774
C     -0.164720   -2.305722    0.999727
C     -1.447578    2.610061   -3.073022
C     -4.335347    0.217762    0.233199
C      4.438270   -0.559884    0.286799
C     -4.864117   -1.702957    1.630139
C      1.173524   -1.784869    1.304459
C     -3.502773    0.265327   -1.024255
C      6.971827    3.019878    0.997212
N      5.559242   -0.237816    0.817369
N      2.180132   -1.371404    0.691303
N     -4.645880   -1.143005    0.507655
N     -6.573714   -3.322823    2.073117
N     -2.136745    0.068348   -1.140275
O     -0.969382   -4.504217    2.343841
O     -2.672418    2.844380   -2.936780
O      4.323797   -0.501821   -1.092394
O     -4.821068   -0.995303    2.793513
O     -4.164819    0.516801   -2.100237
O      7.035611    3.103085   -0.266712
O      6.439860    4.174288    1.608754
O     -1.014599    1.364699   -2.833245
O     -0.980132   -2.243388    2.184591
S      1.833430   -1.640710    3.054786
H     -8.169027    1.115413   -0.513865
H     -8.874536    0.796483    1.098032
H     -8.088124    2.387457    0.756300
H     -1.898741    3.916111   -5.515056
H     -2.279886    5.698665   -5.559120
H     -3.225735    4.561865   -4.505011
H      0.768966    5.808747   -3.730587
H     -0.554181    7.041804   -3.842069
H     -0.119824    6.060780   -5.263691
H      1.781590    1.304056    0.058804
H      1.034850    0.434869   -1.366178
H      0.722334    2.162299   -1.034035
H      1.230375    1.028049    1.802752
H     -0.346288    0.336051    2.449645
H     -0.139768    2.066125    2.159026
H     -5.205142    2.521996   -1.478705
H     -4.706793    2.843502    0.213062
H     -6.419873    2.960016   -0.249939
H      9.396136    2.541734    1.975493
H      8.901530    1.377595    3.282728
H      8.364901    3.093732    3.306515
H     -2.827755   -2.487794    4.068300
H     -2.783701   -4.315788    4.052828
H     -1.567501   -3.345658    4.975518
H     -7.797508   -3.515779    3.729604
H     -6.066779   -4.038180    4.028727
H     -6.495946   -2.298527    3.844056
H     -6.864400   -0.329615    1.176369
H     -6.393385    1.177220    2.015375
H     11.412660    0.466339   -3.651641
H     11.821601   -0.420233   -1.351377
H      9.129129    0.654868   -4.532313
H     -5.721423   -5.444614   -0.814233
H     -4.580725   -5.963644    0.447322
H     -7.161251   -6.320869    0.664282
H     -6.193470   -5.975786    2.128458
H      9.886924   -1.095163   -0.002996
H      7.230116   -0.036426   -3.151708
H     -5.187736   -3.215724   -0.446921
H     -3.720897   -3.909564    0.358553
H     -8.245823   -4.525250    1.866304
H     -7.517944   -3.886081    0.322547
H      0.108856    3.361362   -4.310165
H      0.141789    3.911581   -2.605971
H      8.136699   -0.128829    1.626999
H      8.665883    1.002890    0.338599
H      7.560100   -1.785130    0.016757
H      6.441007   -1.412906   -1.378869
H     -0.236389   -1.811617   -1.079856
H     -1.765684   -2.285635   -0.373088
H      4.300626   -0.732769    3.218082
H     -0.692851   -0.601847   -2.541981
H     -2.263405   -0.251263   -3.221011
H     -1.739055    5.364329   -2.853398
H     -0.992477    1.868561    0.183947
H     -6.129726    0.447224   -0.972790
H      6.577867    1.552828    2.487897
H      6.368044    0.950669   -0.672339
H     -4.563805   -3.595720    2.493698
H     -2.034643   -0.175137    0.884613
H     -0.010172   -3.406717    0.796402
H     -3.822498    0.683932    1.065854
H      4.744589    0.249006   -1.641398
H     -4.460279   -0.040727    2.861544
H      6.545683    5.072691    1.129263
