31

C     -3.030461   -0.281035   -0.040675
C      2.431309    1.230559    0.417759
C      1.611973   -1.210219   -1.254305
C      1.006290   -1.326344    1.097871
C     -1.344396    1.471506    0.150880
C      0.058426    1.734227    0.592150
C     -1.618932   -0.013735    0.355752
C      1.079386    0.876986   -0.123289
C     -0.674164   -0.750530   -0.560870
C      0.766191   -0.560013   -0.151152
O     -1.011261   -2.103985   -0.615994
H     -3.489016   -1.081104    0.582201
H     -3.087263   -0.490663   -1.123271
H     -3.654495    0.627073    0.141379
H      3.150938    1.552910   -0.389303
H      2.930889    0.443849    0.975029
H      2.391013    2.126888    1.104851
H      2.660048   -0.910284   -1.204201
H      1.527787   -2.314018   -1.146098
H      1.122361   -0.918649   -2.220524
H      2.021871   -1.308578    1.486776
H      0.305425   -1.069154    1.924891
H      0.779700   -2.408266    0.866410
H     -2.024931    2.009011    0.830099
H     -1.534202    1.727214   -0.902658
H      0.296525    2.798363    0.296373
H      0.137671    1.696023    1.677426
H     -1.495511   -0.257534    1.414322
H      1.066953    1.245882   -1.192873
H     -0.788838   -0.300441   -1.570945
H     -1.591286   -2.235940   -1.418013
