48

C     -3.932257   -3.171691   -1.065278
C     -3.543700   -2.791723    0.199075
C     -3.528685   -2.374441   -2.125552
C     -2.775950   -1.650107    0.393154
C     -2.767178   -1.242623   -1.930395
C     -3.603393    1.675976   -0.015220
C     -1.877970    1.788033    1.571648
C     -4.390671    2.524874    0.728333
C     -2.678659    2.647119    2.321034
C      3.763410   -0.305672   -1.613063
C      3.932384   -1.621053    0.471456
C      4.615459    0.795833   -1.027268
C      4.806249   -0.461746    0.937662
C      2.998429    1.104824    0.652709
C      2.961592   -1.029344   -0.542857
C     -2.379296   -0.864616   -0.661386
C     -2.323316    1.285514    0.389962
C     -3.923721    3.022558    1.919936
C      2.106842   -0.043849    0.256673
C     -0.285006    0.008016    0.142717
C     -1.554334    0.363655   -0.496229
I     -5.107515    4.327770    3.085109
N      4.373163    0.799828    0.408642
O     -0.316547   -0.614067    1.238891
O     -1.366734    1.012401   -1.718372
O      0.961521    0.334216   -0.420341
H     -4.528141   -4.061884   -1.190985
H     -3.861746   -3.418118    1.023636
H     -3.836506   -2.674838   -3.130624
H     -2.498093   -1.392527    1.401670
H     -2.451671   -0.618450   -2.765465
H     -3.985842    1.282287   -0.968589
H     -0.891287    1.514557    1.922844
H     -5.389669    2.820909    0.397699
H     -2.283129    3.016792    3.245922
H      3.095169    0.089994   -2.387697
H      4.439833   -1.053896   -2.056090
H      3.300790   -1.889036    1.365886
H      4.506504   -2.457418    0.079267
H      5.708288    0.610580   -1.181393
H      4.398895    1.788310   -1.456636
H      5.821087   -0.669776    0.536021
H      4.915683   -0.455301    2.047453
H      2.832527    1.387178    1.723163
H      2.741082    1.997674    0.027697
H      2.350631   -1.787553   -1.038117
H      1.840511   -0.573583    1.188819
H     -0.389033    1.024415   -1.885520
