37

C      5.452501   -0.142075   -0.655311
C     -3.726375   -0.367646    1.011645
C     -2.260874    1.619380    1.087660
C      0.616521    0.371054    1.833869
C      4.330980   -0.227860   -1.336442
C      3.333739   -1.303811   -1.041188
C     -1.718568   -1.299496   -0.635931
C     -1.055912    0.903076   -1.429817
C     -2.218842    0.122674   -0.924971
C     -1.310550   -0.737911    0.729096
C      0.183513    0.762683   -0.604971
C     -2.409388    0.250852    0.558588
C      0.074985   -0.184748    0.532783
B      1.933623   -0.657772   -0.610239
O      1.249109    0.339661   -1.415129
O      0.893311   -1.274787    0.207133
H      6.170430    0.624960   -0.861060
H      5.690443   -0.844485    0.138607
H     -3.706789   -1.477473    0.941111
H     -4.588600    0.086423    0.514561
H     -3.801110   -0.150048    2.117663
H     -1.716715    2.329586    0.425794
H     -1.870562    1.671598    2.133251
H     -3.297976    2.067379    1.167373
H      0.630255    1.468406    1.742776
H      1.627507   -0.019291    2.075473
H     -0.028771    0.070211    2.700998
H      4.115646    0.474022   -2.114599
H      3.203567   -1.917655   -1.966123
H      3.694216   -1.954518   -0.227888
H     -0.872781   -1.591024   -1.272234
H     -2.509643   -2.053720   -0.606849
H     -0.851380    0.560106   -2.477799
H     -1.322893    1.992224   -1.547190
H     -3.092939    0.189375   -1.556102
H     -1.370565   -1.450532    1.549975
H      0.530886    1.751181   -0.184512
