32

C     -3.651188   -0.796296   -0.217101
C     -2.971121    1.497109    0.269528
C      4.025458   -0.570061    0.646976
C      2.866766   -1.294886    0.783019
C      3.984793    0.676837    0.068209
C      0.485304   -1.671087    0.555381
C      0.305077    0.942083   -0.680386
C      1.653047   -0.804033    0.352078
C      1.622087    0.445694   -0.226558
C      2.763370    1.196901   -0.377388
C     -0.763510   -1.186612   -0.070206
C     -0.516998   -0.216565   -1.207298
C     -2.461864    0.139840   -0.155951
O      2.754731    2.449448   -0.952443
O     -1.559389   -0.396833    0.752150
O     -1.827839    0.282101   -1.367041
H     -4.541577   -0.211856   -0.510277
H     -3.815830   -1.215861    0.818162
H     -3.464499   -1.609220   -0.930325
H     -3.997036    1.600314   -0.147510
H     -2.369536    2.311686   -0.227154
H     -2.967247    1.647320    1.356599
H      4.994083   -0.951314    0.986009
H      2.949790   -2.272770    1.245675
H      4.859213    1.281647   -0.060918
H      0.357313   -1.861336    1.637157
H      0.739559   -2.667449    0.100067
H      0.333566    1.771061   -1.387551
H     -0.229218    1.270083    0.261105
H     -1.384617   -2.031724   -0.424363
H     -0.120103   -0.672998   -2.105648
H      1.947413    2.918779   -1.300658
