25

C      1.367017   -0.802981    1.076922
C     -1.951514   -1.032160   -0.174606
C     -1.516088   -0.463517    1.146322
C     -1.208815   -0.436770   -1.310414
C     -0.556909    0.689630    0.995945
C      0.259778   -0.291422   -1.110410
C      1.608941    1.362708    0.040593
C      0.652810    0.237371    0.236576
O      0.704459    0.581028   -2.129881
O      1.393981    2.532783    0.415264
O      2.803818    1.053736   -0.602828
H      0.880339   -0.924116    2.085318
H      2.417095   -0.524190    1.297655
H      1.343933   -1.806282    0.599500
H     -3.041197   -0.784265   -0.312465
H     -1.871372   -2.128758   -0.223973
H     -1.096014   -1.295525    1.741927
H     -2.402735   -0.084766    1.733988
H     -1.622256    0.594307   -1.506187
H     -1.366722   -1.036865   -2.238228
H     -1.112274    1.482236    0.422141
H     -0.304501    1.049183    1.993513
H      0.831382   -1.245635   -1.297411
H      0.440483    1.494253   -1.796348
H      3.346360    1.780015   -1.082913
