48

C     -3.346564    0.416132   -3.829796
C     -4.051865   -0.315237   -2.898358
C     -2.096585    0.861188   -3.521574
C     -3.513362   -0.601151   -1.666180
C     -1.519249    0.588598   -2.278892
C     -2.988744   -0.943745    1.929385
C     -2.801875    1.320238    1.305111
C     -3.792547   -0.639892    3.001773
C     -3.611580    1.668113    2.378789
C      3.714852   -1.386996   -0.780068
C      4.061334    1.022524   -0.744329
C      4.306010   -1.590190    0.579661
C      4.765267    0.765592    0.575185
C      2.800979   -0.145589    1.616811
C      3.000184   -0.075395   -0.872793
C     -2.238802   -0.141271   -1.365725
C     -2.484361    0.013080    1.072245
C     -4.091456    0.693532    3.204665
C      2.071759    0.158674    0.327524
C     -0.318266    0.183444    0.092814
C     -1.631722   -0.438840   -0.048541
I     -5.324791    1.188453    4.845593
N      4.204961   -0.334229    1.305902
O     -0.257847    1.459434    0.123446
O     -1.429229   -1.830852   -0.002014
O      0.873593   -0.530707    0.196348
H     -3.778722    0.638387   -4.801762
H     -5.061046   -0.670228   -3.157285
H     -1.531593    1.436484   -4.243262
H     -4.068691   -1.176311   -0.934104
H     -0.533224    0.967918   -2.109386
H     -2.740430   -1.997215    1.752002
H     -2.428157    2.098409    0.655923
H     -4.185018   -1.409915    3.672650
H     -3.869878    2.705130    2.572777
H      3.103308   -2.251246   -1.123236
H      4.578703   -1.330836   -1.501272
H      4.731766    0.959886   -1.609872
H      3.485991    1.979636   -0.710099
H      5.310674   -2.016702    0.587866
H      3.632983   -2.316634    1.120331
H      5.810484    0.504623    0.325614
H      4.666158    1.670670    1.191334
H      2.456209   -1.105473    2.074058
H      2.711737    0.665792    2.356552
H      2.386669    0.039258   -1.764808
H      1.881908    1.251079    0.329374
H     -0.859927   -2.007620    0.769624
