47

C      4.955624   -1.132638    1.269527
C     -1.028734    4.334467   -0.754241
C      0.278897    4.669612   -1.059886
C     -3.141721   -2.330190   -0.339267
C     -1.366853    3.072370   -0.358787
C      1.278590    3.724692   -0.971204
C     -1.875219   -2.599567   -0.598683
C      0.131764   -1.771045   -1.797545
C      1.534688   -1.816608   -1.240386
C     -0.780357    0.751170    1.608475
C     -3.547441   -0.950759   -0.064522
C     -2.156062    0.155808    1.560535
C      0.102596   -1.892611    0.552683
C     -0.345832    2.128413   -0.272881
C      0.951969    2.444958   -0.573897
C      1.022713    0.275568   -0.075705
C     -1.323715   -0.178948   -0.571963
C      2.526749   -1.400563    0.973835
C     -0.779734   -1.592105   -0.639156
C      1.342350   -1.162623    0.187965
C     -0.345614    0.718965    0.158530
N      1.736497    1.281862   -0.440844
N     -2.501414   -0.036734    0.178054
O      2.446820   -2.035227    2.053395
O      3.760718   -0.937826    0.555678
H      5.797396   -1.480832    0.637744
H      4.809509   -1.788487    2.164869
H      5.266375   -0.140646    1.671099
H     -1.779351    5.108157   -0.838856
H      0.522863    5.688083   -1.373454
H     -3.910079   -3.105365   -0.320990
H     -2.384943    2.772433   -0.110322
H      2.301229    3.984355   -1.209576
H     -1.608626   -3.631155   -0.797866
H     -0.045250   -2.752467   -2.332700
H      0.033145   -0.934364   -2.536727
H      2.147085   -1.087678   -1.792459
H      1.960179   -2.810526   -1.137615
H     -0.083526    0.329490    2.322784
H     -0.841060    1.849229    1.940513
H     -4.135257   -0.574444   -0.953310
H     -4.277081   -0.883494    0.784085
H     -2.336258   -0.691504    2.218883
H     -2.875460    0.955302    1.922435
H      0.350825   -3.000320    0.456700
H     -0.335025   -1.744832    1.520432
H     -1.453969    0.218624   -1.575384
