54

C      5.335670   -2.735278    0.761052
C      0.645662   -1.673527   -0.893193
C     -3.566019   -1.333260    0.193081
C     -4.427788    0.112279    1.848283
C      2.782906   -1.592630    0.131660
C      1.997016    5.088462   -1.148699
C      3.352868    3.410532   -0.114064
C      0.119758    1.819034   -1.116047
C      1.552256   -0.977826   -0.141336
C     -3.393852   -0.239169    1.009814
C      3.160874    4.700529   -0.531571
C      1.175076    2.883127   -0.944697
C      0.964010    4.166088   -1.369875
C     -4.757938   -2.024492    0.249944
C     -5.615697   -0.583278    1.899444
C      0.975089   -2.953383   -1.354153
C      2.342123    2.478276   -0.322865
C      3.125474   -2.841524   -0.308671
C      0.098893    1.052787    0.233438
C     -5.784904   -1.663095    1.092978
C      2.197711   -3.535121   -1.068777
C      1.386199    0.359537    0.437389
C     -2.182103    0.559570    1.031428
O      4.169641    5.637543   -0.324579
O     -0.197871    4.557102   -1.989535
O     -4.942532   -3.135156   -0.573974
O     -6.624379   -0.176247    2.770639
O      0.035339   -3.629363   -2.111353
O     -6.989360   -2.379182    1.135863
O      2.500527   -4.809767   -1.539512
O     -2.115659    1.540079    1.810026
O      4.367860   -3.392960    0.000051
O      2.494344    1.171268    0.078071
O     -1.071448    0.327098    0.250677
H      4.960062   -2.692042    1.811785
H      6.295623   -3.261640    0.788923
H      5.476381   -1.670582    0.435101
H     -0.316121   -1.236540   -1.137711
H     -2.744300   -1.593632   -0.457528
H     -4.334333    0.968218    2.509096
H      3.549504   -1.077102    0.732314
H      1.834807    6.118283   -1.486254
H      4.258682    3.068644    0.376037
H      0.457702    1.144275   -1.914491
H     -0.857641    2.264254   -1.243562
H      0.077857    1.926073    0.969099
H      1.548586    0.199638    1.556085
H      4.057307    6.604912   -0.623626
H     -0.938381    3.930234   -2.170068
H     -5.790005   -3.667568   -0.567556
H     -6.503314    0.626295    3.372467
H      0.180695   -4.547558   -2.483998
H     -7.724496   -2.089702    1.764902
H      3.401641   -5.202512   -1.311953
