39

C      4.426509   -0.626664   -0.254855
C     -1.001799    2.908120    0.126699
C     -1.181733   -1.312871   -1.292311
C      1.574333   -1.636829    0.330248
C      0.136419   -1.733630    0.771008
C     -3.104276    0.145507    0.291155
C      3.316057    0.077470   -0.207313
C     -1.150935    1.574189   -0.616301
C      2.006963   -0.223568    0.386926
C     -2.574357    1.201112   -0.579377
C     -2.078332   -0.740701    0.895392
C     -0.234986    0.601319    0.032382
C      1.106161    0.552952   -0.590419
C      3.149632    1.418545   -0.788018
C     -0.791262   -0.810523    0.062565
O     -3.350134    1.796598   -1.305854
O     -2.635805   -2.024703    1.018928
O      4.030819    2.170828   -1.295901
O      1.798484    1.754625   -0.688757
H      4.524429   -1.609173    0.178883
H      5.308105   -0.237605   -0.743661
H     -1.452338    3.737155   -0.416874
H      0.088571    3.063598    0.347560
H     -1.472834    2.732216    1.133540
H     -1.228638   -2.438630   -1.225455
H     -0.486604   -1.074672   -2.094998
H     -2.197517   -1.005824   -1.610413
H      1.776249   -2.096517   -0.635117
H      2.174233   -2.217533    1.087910
H      0.062776   -1.602547    1.850453
H     -0.199360   -2.784373    0.540320
H     -3.897810   -0.419592   -0.262741
H     -3.651456    0.663211    1.132849
H     -0.795853    1.778151   -1.649468
H      1.853526    0.221584    1.384427
H     -1.782620   -0.400821    1.891223
H     -0.101307    0.886662    1.116461
H      1.157813    0.001670   -1.545451
H     -3.121127   -2.288737    0.195189
