33

C      2.135901   -1.710765   -0.437117
C     -0.394216    2.250717   -0.712022
C     -0.039981    2.318987    0.733578
C     -1.155001   -1.730363    1.155403
C     -1.898051   -2.263861   -0.031001
C     -1.467321    1.292234   -1.066708
C      1.439999   -0.368992   -0.415513
C     -0.757834   -0.321886    0.806311
C      1.016835    1.336459    1.154600
C     -1.978774   -1.141540   -1.003267
C      0.715919   -0.083780    0.844714
C      2.502633    0.670488   -0.471416
N     -1.388666    0.018367   -0.428910
O     -2.505445   -1.279574   -2.141815
O      3.540030    0.689241   -1.201175
O      2.199277    1.668263    0.422042
H      2.115335   -2.226566    0.535861
H      1.705270   -2.362162   -1.229422
H      3.223455   -1.614744   -0.704675
H      0.544553    2.109483   -1.287571
H     -0.758998    3.277816   -1.017083
H      0.439504    3.333936    0.891009
H     -0.921567    2.336482    1.406296
H     -0.291688   -2.380821    1.386478
H     -1.835462   -1.795142    2.030261
H     -2.946619   -2.572447    0.218292
H     -1.354469   -3.143113   -0.457853
H     -2.464119    1.788572   -0.929044
H     -1.405146    1.112125   -2.178472
H      0.836084   -0.272067   -1.339180
H     -1.216033    0.327448    1.599050
H      1.229272    1.484384    2.212305
H      1.135321   -0.747179    1.656044
