44

C     -4.452777   -0.395150    0.794493
C      4.588664    0.675983    0.538444
C     -3.723205   -0.383582   -0.375981
C      3.546230    0.476110   -0.375736
C     -3.998097    0.272043    1.910742
C      4.372450    1.277264    1.752260
C     -1.726199    0.317356   -1.699821
C      1.193003    0.664037   -1.030436
C     -2.097251    0.954960    0.686857
C      2.090906    1.487444    1.165768
C     -1.274029   -2.149359   -1.751930
C      1.396435   -1.759733   -0.983908
C     -2.521363    0.297670   -0.451936
C      2.276319    0.886874   -0.060373
C     -0.696305   -0.777614   -1.804263
C      0.432249   -0.616366   -0.842444
C     -2.804438    0.960971    1.869432
C      3.100515    1.694983    2.081410
O     -1.956641   -2.466413   -0.599974
O      2.022677   -1.832850   -2.218410
O     -2.355875    1.632271    3.007071
O      2.914124    2.296901    3.310041
H     -5.404092   -0.942365    0.832570
H      5.568854    0.352768    0.281913
H     -4.136140   -0.926492   -1.220095
H      3.816516   -0.006379   -1.315825
H     -4.550897    0.283917    2.855335
H      5.182119    1.432505    2.462310
H     -2.466075    0.177639   -2.537029
H     -1.312828    1.318315   -1.829905
H      1.640405    0.685195   -2.045829
H      0.540981    1.563451   -0.993705
H     -1.154054    1.516858    0.702996
H      1.108131    1.820920    1.443462
H     -2.016472   -2.303030   -2.604959
H     -0.515040   -2.914413   -1.941754
H      0.981193   -2.734375   -0.645402
H      2.257625   -1.590944   -0.254702
H     -0.264432   -0.664193   -2.841297
H     -0.047476   -0.647950    0.179822
H     -1.437686   -2.432478    0.215261
H      1.681757   -1.174555   -2.833031
H     -1.766085    1.071656    3.630763
H      1.966305    2.600148    3.537789
