34

C     -2.371978   -0.527427   -1.488275
C     -2.185468   -1.809921    0.582684
C      3.921822    0.105604   -0.284933
C     -1.551527    2.865418    1.829591
C      1.672084    0.686024   -1.188033
C      1.839572   -1.327990    0.106770
C      0.233712    0.344865   -1.322797
C      0.543020   -0.936729    0.829694
C     -1.396170   -1.282704   -0.580924
C      2.467326   -0.119783   -0.495346
C     -0.695143    1.892017    1.097663
C     -0.405485   -0.203851   -0.099261
O      0.528772    2.079513    0.899729
O     -1.214516    0.715151    0.592136
H     -1.871424   -0.148977   -2.397823
H     -2.685296    0.383879   -0.915542
H     -3.278044   -1.105299   -1.690889
H     -1.827696   -1.397184    1.556846
H     -2.150213   -2.908637    0.550921
H     -3.265377   -1.522133    0.528734
H      4.201898    1.165035   -0.542391
H      4.547244   -0.622487   -0.836978
H      4.160858   -0.010474    0.808521
H     -0.940609    3.706991    2.179064
H     -2.314894    3.264413    1.124342
H     -2.026856    2.300139    2.662686
H      2.108266    1.573268   -1.634385
H      1.579477   -2.043933   -0.689314
H      2.487084   -1.768345    0.893898
H      0.174124   -0.388006   -2.153686
H     -0.298390    1.259359   -1.651688
H      0.777195   -0.263066    1.684010
H      0.119778   -1.890955    1.204167
H     -0.883147   -2.063776   -1.159190
