39

C      4.417774   -0.090048    0.111536
C     -1.484380    2.683180   -0.820055
C     -0.691324   -0.953109    1.545706
C      1.759707   -1.529328   -0.065039
C      0.337992   -1.935987   -0.426815
C     -3.048817   -0.316166   -0.548275
C      3.268554    0.453994   -0.222869
C     -1.335458    1.453732    0.065856
C      2.013803   -0.200621   -0.654705
C     -2.697057    0.890420    0.244665
C     -2.033084   -1.402850   -0.433203
C     -0.360337    0.471619   -0.484050
C      1.009853    0.791057   -0.043637
C      2.931350    1.888654   -0.252885
C     -0.684569   -0.938037    0.034717
O     -3.453300    1.427432    1.016093
O     -2.540962   -2.347099    0.488770
O      3.758088    2.831144   -0.080960
O      1.545648    1.996118   -0.503869
H      4.544252   -1.161775    0.094266
H      5.256290    0.519350    0.409303
H     -2.193014    3.359447   -0.308241
H     -0.536641    3.204822   -0.960103
H     -1.950298    2.415021   -1.793998
H     -1.328826   -0.181096    1.992383
H      0.308909   -0.857026    1.989919
H     -1.076623   -1.952435    1.847976
H      1.946036   -1.582756    1.013156
H      2.419724   -2.290825   -0.541438
H      0.283197   -1.961423   -1.542934
H      0.061907   -2.916166   -0.046436
H     -4.057627   -0.638442   -0.194598
H     -3.170563   -0.057930   -1.619749
H     -0.935515    1.839832    1.040275
H      1.917872   -0.236591   -1.748067
H     -1.907270   -1.966428   -1.390703
H     -0.401820    0.389650   -1.590338
H      1.127415    0.760092    1.050105
H     -3.020885   -1.859428    1.231074
