45

C      5.620340    1.947076   -0.057856
C     -4.519729    1.816063    1.903051
C     -4.459708    2.863333    0.997966
C     -3.650477    0.772983    1.773159
C     -2.119175   -2.869942   -0.840261
C      0.163558   -3.013086   -0.152171
C     -2.105609   -4.268766   -0.932349
C      0.184388   -4.403607   -0.240068
C      3.338392   -0.352590    0.528569
C      2.466935    0.858979    0.413995
C     -2.695864    1.808470   -0.133514
C      5.646670    0.472298    0.065156
C     -0.955561   -2.261070   -0.443574
C     -3.551441    2.879590   -0.029776
C     -0.971972   -5.009470   -0.635030
C     -2.699896    0.740906    0.734188
C     -0.949573   -0.756215   -0.296965
C      0.420742   -0.269829   -0.249070
C     -3.511388    4.061310   -0.957436
Cl    -1.013017   -6.757648   -0.768039
F     -3.598819    3.664585   -2.259521
F     -4.621336    4.867120   -0.675619
F     -2.386412    4.799697   -0.648176
N      4.685973   -0.197691    0.285777
O      6.905813   -0.158450   -0.099633
O      1.140601   -0.720462   -1.241127
O      1.061202    0.554280    0.628449
O     -1.842753   -0.343126    0.654923
H      5.354908    2.366623    0.949455
H      4.864937    2.214139   -0.817752
H      6.622576    2.372547   -0.327213
H     -5.268333    1.852725    2.720550
H     -5.149347    3.714712    1.083800
H     -3.654297   -0.064188    2.438927
H     -3.015182   -2.293978   -1.083527
H      1.074488   -2.547086    0.152783
H     -3.016293   -4.762980   -1.242023
H      1.097416   -4.933166    0.005272
H      2.934150   -1.226414   -0.048576
H      3.225753   -0.758422    1.617839
H      2.709174    1.548196    1.256087
H      2.601089    1.370627   -0.533089
H     -1.963937    1.810215   -0.942476
H     -1.342888   -0.349110   -1.304702
H      6.943902   -1.039176   -0.633783
