34

C     -2.264802   -0.440428   -1.831336
C     -1.858978   -2.102358   -0.118291
C      3.896780    0.664620    0.653504
C     -2.002531    1.986018    2.146242
C      2.101615   -0.926057    0.549517
C      1.540454    1.297165   -0.246435
C      0.741556   -1.407350    0.267999
C      0.668715    0.501367   -1.228417
C     -1.206625   -1.148171   -1.096617
C      2.476701    0.310775    0.317774
C     -1.540194    1.386334    0.843814
C     -0.192836   -0.341412   -0.344990
O     -1.963522    1.905799   -0.187381
O     -0.703215    0.331016    0.761770
H     -3.200052   -0.232649   -1.258905
H     -1.933226    0.439265   -2.444160
H     -2.639660   -1.177467   -2.623778
H     -1.150410   -2.835543    0.290407
H     -2.337604   -1.544504    0.688055
H     -2.643590   -2.660162   -0.703287
H      4.603914   -0.106111    0.268219
H      4.181538    1.617635    0.151455
H      4.042140    0.749662    1.737142
H     -1.545232    2.990838    2.269704
H     -3.092378    2.131816    2.030565
H     -1.724341    1.350825    3.000257
H      2.853044   -1.651436    0.982647
H      2.041198    2.139317   -0.757229
H      0.897561    1.655349    0.599146
H      0.316217   -1.770819    1.232165
H      0.801660   -2.285705   -0.388502
H      0.141155    1.142561   -1.926380
H      1.320818   -0.183810   -1.817608
H     -0.625871   -1.786379   -1.817065
