90

C     -5.016796   -3.062516   -2.047791
C      5.311647   -2.922593    1.358843
C     -3.509606    1.099827    0.243373
C      3.484282    1.526150   -0.136703
C     -4.894011    1.006381    0.435026
C      4.876582    1.614462   -0.258730
C     -3.573027   -0.904191   -0.978985
C      3.682383   -0.666269    0.645167
C    -11.095303    1.323355   -0.690265
C      9.458900   -0.145442    1.480970
C     -0.341183   -0.447385    1.522132
C      0.415475    0.016512   -1.863945
C     -2.841845    0.133417   -0.471776
C      2.875446    0.394220    0.312693
C     -0.608925   -0.788737    0.094432
C      0.773097   -0.610577   -0.551223
C     -5.654105   -0.025412   -0.063150
C      5.670424    0.547540    0.076606
C     -4.926844   -0.994216   -0.790631
C      5.043154   -0.625605    0.542433
C    -10.117431    0.829790    0.361323
C      9.794658    1.123754    0.760832
C    -10.141818   -0.690730    0.435888
C     10.603594    0.846993   -0.511657
C     -9.389811   -1.055664    1.706400
C      9.631053    0.222649   -1.490432
C     -8.365900   -0.014412    1.995997
C      8.549391    1.258898   -1.730021
C     -1.386379    0.282904   -0.639394
C      1.415070    0.350496    0.421210
C     -7.827353    0.690172    0.763880
C      7.832319    1.557598   -0.415673
O    -11.073780    2.689018   -0.824874
O     10.668579   -0.872037    1.585873
O     -9.480500   -1.270528   -0.624321
O     11.667751    0.035936   -0.202862
O    -10.315249   -1.175066    2.767639
O     10.251707   -0.086406   -2.689224
O     -8.738451    0.909597    2.965392
O      9.217929    2.451943   -2.065823
O     -5.655740   -2.045841   -1.306811
O      5.839044   -1.715964    0.886533
O     -0.972342    0.032959   -1.967676
O      1.025357   -0.218177    1.650462
O     -7.010038   -0.184483    0.083693
O      7.043472    0.501386    0.004566
O     -8.857591    1.216443   -0.014890
O      8.747081    1.979796    0.554245
H     -4.235828   -3.530572   -1.434594
H     -4.584470   -2.604068   -2.974276
H     -5.783592   -3.801093   -2.350734
H      6.087406   -3.732940    1.280274
H      4.388135   -3.236543    0.817523
H      5.071841   -2.789347    2.427431
H     -2.992669    1.942043    0.667964
H      2.934550    2.428563   -0.428032
H     -5.369346    1.791983    1.005078
H      5.305734    2.535119   -0.621219
H     -3.028363   -1.664390   -1.544626
H      3.220935   -1.577059    1.004850
H    -10.944121    0.789037   -1.633026
H    -12.120837    1.025832   -0.319107
H      8.730431   -0.783151    0.979821
H      9.191405    0.117130    2.534193
H     -0.923143    0.393266    1.911058
H     -0.558901   -1.367277    2.138372
H      0.738175    1.095710   -1.818051
H      0.912216   -0.417774   -2.733357
H     -0.976993   -1.799357   -0.083887
H      1.279320   -1.570769   -0.628612
H    -10.398871    1.240006    1.361444
H     10.519697    1.678752    1.426634
H    -11.212667   -0.969857    0.502986
H     10.893186    1.832011   -0.925713
H     -8.964495   -2.082632    1.567172
H      9.246769   -0.708567   -1.049983
H     -7.468784   -0.548868    2.430248
H      7.804097    0.962597   -2.465517
H     -1.032074    1.260809   -0.319362
H      0.978989    1.336236    0.274566
H     -7.261562    1.555309    1.142339
H      7.210409    2.440789   -0.630762
H    -11.171686    3.092597    0.082552
H     10.422823   -1.836662    1.628538
H    -10.049384   -1.857649   -1.186156
H     12.122799   -0.198799   -1.072222
H    -10.539026   -0.272740    3.116949
H     10.151364    0.706054   -3.300204
H     -8.315966    1.774002    2.711170
H      8.638133    3.232324   -1.977186
