54

C      4.699599   -1.776490   -0.283825
C      4.325292    0.322454   -1.453829
C     -4.387104   -1.327067   -2.091973
C     -0.533432   -0.768021    2.359158
C      0.290485    5.557927   -0.097618
C     -3.819689   -1.888798    0.266949
C     -2.536531   -1.586293    0.987616
C      2.006278   -1.643242    0.868145
C      0.562899   -1.804769    0.462185
C     -3.525917    0.441402   -0.577759
C     -1.579155    1.746871   -0.169743
C      3.626910   -0.898002   -0.891603
C     -4.292425   -0.818917   -0.646983
C     -2.265661    0.475323   -0.214154
C      2.674470   -0.481235    0.200909
C     -0.337834    1.810952    0.218385
C     -1.581838   -0.749633    0.135854
C      0.465132    0.643273    0.635955
C      1.595101    0.409320   -0.310301
C      0.330555    3.120096    0.251564
C     -0.284991   -0.608567    0.850474
O      1.687907    0.871537   -1.409305
O      1.525763    3.269919    0.613137
O     -0.335673    4.290081   -0.122910
H      4.559255   -2.843663   -0.532280
H      4.792945   -1.595747    0.810989
H      5.713969   -1.510737   -0.700496
H      4.376524    1.083521   -0.632566
H      3.830656    0.720568   -2.345931
H      5.408070    0.084483   -1.669787
H     -3.633603   -2.116800   -2.280471
H     -4.358578   -0.501073   -2.809624
H     -5.387710   -1.828390   -2.244887
H     -1.225610    0.016302    2.687872
H      0.444591   -0.557481    2.884985
H     -0.807280   -1.785732    2.627557
H      1.202058    5.589366    0.502754
H     -0.390057    6.358106    0.291736
H      0.494067    5.840151   -1.155649
H     -3.735946   -2.831941   -0.322477
H     -4.604130   -2.118059    1.043075
H     -2.016385   -2.549326    1.171048
H     -2.777665   -1.080766    1.944641
H      2.531155   -2.566287    0.544525
H      2.126747   -1.608806    1.979837
H      0.522735   -1.896474   -0.627461
H      0.192834   -2.746730    0.912526
H     -4.017535    1.388523   -0.837313
H     -2.077750    2.684882   -0.458323
H      3.102225   -1.422206   -1.716665
H     -5.349677   -0.553701   -0.380153
H      3.255698    0.126977    0.934790
H     -1.453429   -1.353186   -0.812156
H      0.971688    0.966104    1.595659
