30

C     -4.322386    0.167488   -0.463274
C      4.189176    1.524240    0.115287
C      4.535206    0.215142   -0.128596
C      2.865403    1.903319    0.166781
C      3.524937   -0.709742   -0.320511
C     -1.977076    0.825306   -0.114259
C     -2.938764   -0.350201   -0.126715
C      1.855181    0.960645   -0.028522
C      2.196241   -0.338163   -0.270521
C     -0.561420    0.380716   -0.176770
C     -0.282952   -0.873095   -0.411181
C      0.463534    1.390776    0.031615
C      1.111201   -1.298410   -0.470359
C     -1.353681   -1.877750   -0.619273
O      0.164076    2.584810    0.254310
O      1.438965   -2.494130   -0.692925
O     -1.629148   -2.525538    0.592565
O     -2.481289   -1.226697   -1.120199
H     -4.842540   -0.506759   -1.173946
H     -4.289085    1.184167   -0.905573
H     -4.936833    0.227106    0.437697
H      4.938707    2.296409    0.274039
H      5.563545   -0.046613   -0.162381
H      2.592001    2.929816    0.357996
H      3.754088   -1.746326   -0.514333
H     -2.151101    1.449302   -1.014067
H     -2.189876    1.412185    0.793704
H     -2.925144   -0.829603    0.870011
H     -1.025775   -2.662734   -1.342574
H     -1.285190   -1.965666    1.333124
