54

C      0.739725   -4.192960    0.102769
C     -1.269586   -3.248408    1.130922
C      5.313273    0.944667   -1.733113
C      4.054602    1.480237   -1.576244
C     -3.380416    2.994415    0.940352
C     -4.801057    2.426706   -0.845433
C      5.915499    0.175152   -0.765473
C     -4.149438    4.090540    1.169012
C     -5.574373    3.555191   -0.593116
C      2.009484    1.656904    0.084792
C      3.131497    0.292827    1.776073
C     -3.217950    0.062750   -1.351410
C      0.605690    0.479920    1.798348
C      0.825485   -1.870847    0.985573
C     -0.509133   -2.431977   -1.038941
C      1.920147    1.102753    1.460193
C     -3.700506    2.129642   -0.089244
C      3.361305    1.231092   -0.384246
C      3.980695    0.461964    0.567395
C     -2.890011    0.953243   -0.356359
C     -2.437488   -1.038942   -1.573032
C     -0.992305   -0.413358    0.157796
C     -0.043237   -2.926620    0.311050
N     -5.228639    4.362760    0.411302
N      5.226316   -0.041061    0.356775
N     -1.789595    0.672505    0.352089
N      0.161867   -0.597254    0.989211
N     -1.331079   -1.257356   -0.807355
O     -2.694506   -1.870291   -2.458493
H      0.716862   -4.797091    1.041618
H      1.787798   -3.956096   -0.139305
H      0.302552   -4.822971   -0.698155
H     -1.516707   -4.320679    1.157850
H     -1.197700   -2.879718    2.165334
H     -2.182789   -2.749581    0.686066
H      5.871153    1.122561   -2.642935
H      3.566411    2.099728   -2.346666
H     -2.510322    2.753229    1.535835
H     -5.119010    1.812802   -1.660374
H      6.902439   -0.249360   -0.878973
H     -3.917644    4.787347    1.976578
H     -6.440556    3.746747   -1.226819
H      1.212948    1.291468   -0.597975
H      2.029800    2.772847    0.047460
H      3.750113    0.750367    2.614149
H      2.972134   -0.734696    2.089069
H     -4.081607    0.179898   -1.993200
H      0.678343    0.159449    2.884553
H     -0.142068    1.325909    1.855015
H      0.995328   -2.200963    2.021757
H      1.792614   -1.887437    0.442756
H     -1.073005   -3.257424   -1.506648
H      0.349089   -2.157768   -1.656901
H      2.017554    2.027236    2.140334
