39

C      2.989463   -0.492636    1.187050
C      3.092018   -0.920285   -1.175517
C      0.410266    3.879011    0.309828
C     -2.713254   -1.542820    0.725936
C     -1.519797    2.274739    0.622380
C     -0.924036   -2.401542   -0.756715
C     -1.661984    0.767625    0.856965
C      0.455613   -2.230280   -0.285512
C      0.586042    1.553929   -0.475970
C      2.319373   -0.746190    0.084031
C     -0.146776    2.488436    0.115733
C     -1.883787   -1.297500   -0.547178
C      0.841832   -0.845484    0.147440
C     -1.323624    0.076873   -0.459773
C      0.149620    0.161666   -0.720843
H      2.462752   -0.361616    2.112632
H      4.065167   -0.412222    1.185363
H      3.606833   -1.917062   -1.154046
H      3.902678   -0.161741   -1.157205
H      2.477291   -0.902600   -2.070860
H     -0.281587    4.629847   -0.136849
H      1.411808    3.980839   -0.126188
H      0.424602    4.081930    1.412783
H     -2.901625   -2.657152    0.714517
H     -3.713551   -1.083536    0.646627
H     -2.160186   -1.308445    1.629743
H     -1.652084    2.825797    1.566306
H     -2.253304    2.559936   -0.149027
H     -1.355831   -3.320902   -0.254722
H     -0.905254   -2.708361   -1.843441
H     -2.693521    0.606333    1.161858
H     -0.998332    0.502960    1.670014
H      0.693030   -2.905671    0.591367
H      1.200523   -2.541493   -1.060350
H      1.576979    1.844767   -0.799676
H     -2.646511   -1.336150   -1.356486
H      0.548267   -0.742843    1.206841
H     -1.795770    0.743159   -1.237505
H      0.316656   -0.141316   -1.775304
