40

C     -2.195207   -1.297043    2.399899
C      6.137688    0.828343    1.500860
C     -4.919572    1.933728   -0.184479
C     -3.880091    2.467529    0.521590
C     -4.936737    0.578542   -0.466405
C     -2.861307    1.659168    0.946276
C     -3.885482   -0.226619   -0.022310
C      2.244857    0.591071   -0.144930
C      2.796125   -1.471749   -1.144219
C      3.518339    0.671949    0.395470
C      4.062726   -1.386950   -0.604165
C     -1.724868   -0.562631    1.156571
C     -2.830354    0.284642    0.688203
C      1.856487   -0.485196   -0.927947
C      4.453729   -0.318452    0.175244
C      0.522581   -0.592655   -1.507086
C     -0.736212   -1.000428   -1.063920
C     -0.027964   -0.322097   -2.762851
C     -1.243088   -0.728648   -2.293536
N     -1.224936   -1.484369    0.155616
O      0.486851    0.113006   -3.810428
O     -2.374789   -0.804163   -2.835645
O      5.737716   -0.253997    0.710069
H     -1.366769   -1.438118    3.124946
H     -3.066397   -0.820862    2.860674
H     -2.489083   -2.314010    2.066989
H      5.842657    1.820966    1.071190
H      5.668647    0.759348    2.486641
H      7.234388    0.860624    1.624914
H     -5.748163    2.517554   -0.544624
H     -3.872665    3.529878    0.739254
H     -5.719556    0.110081   -1.011521
H     -2.057700    2.096485    1.497028
H     -3.913656   -1.281914   -0.250179
H      1.511295    1.366082    0.026896
H      2.512544   -2.324324   -1.755201
H      3.828623    1.502186    1.003897
H      4.808925   -2.174088   -0.778065
H     -0.897283    0.117354    1.502781
H     -1.252299   -2.520226    0.399375
