44

C      0.926687    4.820204    0.401884
C     -3.730726   -1.597031   -0.530654
C      3.350994   -0.138512    0.859467
C     -3.466741    0.836606   -0.504003
C     -3.330873   -2.890390   -0.276881
C      4.715988   -0.299463    0.911444
C     -2.793923    1.827185    0.423810
C      3.310985   -1.260052   -1.203580
C     -1.347908   -1.994023    0.668378
C      0.167353    3.657596   -0.127108
C     -2.956727   -0.499761   -0.193727
C      2.595313   -0.610665   -0.196645
C     -2.103919   -3.111067    0.341219
C     -1.741134   -0.697749    0.417764
C      5.391310   -0.953651   -0.114520
C      4.660184   -1.431919   -1.175590
C     -1.300280    1.706295    0.177679
C     -0.840919    0.419374    0.816425
C      1.154887   -0.448553   -0.265613
Cl     7.125279   -1.137429   -0.010639
Cl     5.540778   -2.255366   -2.459247
N     -1.666939   -4.427714    0.614388
N      0.539192    0.139924    0.655229
O      0.209835    3.439937   -1.365884
O      0.474076   -0.948517   -1.353538
O     -0.579679    2.802781    0.648924
H      0.513424    5.719825   -0.132067
H      1.996465    4.766109    0.091439
H      0.788880    4.977495    1.469250
H     -4.704189   -1.463008   -1.019304
H      2.845860    0.371067    1.663952
H     -4.563541    0.906415   -0.466277
H     -3.173231    1.123894   -1.548795
H     -3.937588   -3.759718   -0.540590
H      5.289951    0.073002    1.738957
H     -2.976874    1.464115    1.458654
H     -3.180329    2.830540    0.231719
H      2.764944   -1.647915   -2.052159
H     -0.384897   -2.193345    1.154631
H     -1.164574    1.647931   -0.921671
H     -1.022479    0.554021    1.924547
H     -0.883153   -4.819764    0.073105
H     -2.124077   -4.991407    1.344963
H     -0.387688   -0.507297   -1.629340
