29

C     -0.304821    1.387419   -1.716644
C     -2.036698    0.866237    0.904246
C     -2.005479   -0.962825   -0.716527
C      2.248090    1.371400   -0.239123
C      0.504115   -1.873795    0.284815
C      1.604533   -1.058662   -0.409564
C      0.797823    0.149653    1.418617
C     -0.103984    0.635060   -0.652588
C     -0.287514   -0.893471    1.094729
C     -1.140996   -0.074485    0.147261
C      1.221040    0.353909   -0.047348
H     -1.310224    1.528170   -2.076417
H      0.522090    1.852894   -2.216998
H     -2.383505    0.407573    1.875914
H     -1.576051    1.834837    1.137818
H     -2.984650    1.044331    0.322452
H     -1.538623   -1.107915   -1.700807
H     -2.159050   -1.959963   -0.244664
H     -3.012687   -0.529288   -0.891200
H      2.889394    1.596416    0.653570
H      2.971512    1.027306   -1.028931
H      1.843374    2.345722   -0.627683
H      1.026101   -2.599942    0.949922
H     -0.078612   -2.400476   -0.487030
H      2.593566   -1.275130   -0.001874
H      1.557771   -1.201286   -1.506660
H      0.336295    1.072547    1.788147
H      1.597497   -0.262839    2.025512
H     -0.790309   -1.273398    1.961055
