44

C     -1.477565    4.999993    0.868991
C     -2.786027   -2.354793   -0.947143
C      2.644058   -0.789181   -0.535263
C     -2.869140   -0.151078   -1.965498
C     -2.248811   -3.303975   -0.130769
C      3.745623   -1.558543   -0.942608
C     -2.288554    1.209334   -1.907940
C      3.926415    0.091753    1.208131
C     -0.527459   -1.774060    0.490235
C     -1.847811    3.560068    0.690125
C     -2.181026   -1.089450   -1.046469
C      2.697048    0.057059    0.547321
C     -1.106384   -3.026590    0.603469
C     -1.045690   -0.800121   -0.323047
C      4.940461   -1.497682   -0.266705
C      5.013540   -0.657801    0.818468
C     -1.717659    1.469030   -0.535953
C     -0.449302    0.560915   -0.467476
C      1.561870    0.857452    0.963708
Cl     6.330181   -2.465008   -0.776545
Cl     6.517891   -0.560518    1.695495
N     -0.595828   -4.041194    1.428538
N      0.427810    0.970982    0.512161
O     -2.610047    2.979686    1.505026
O      1.825127    1.664070    2.121815
O     -1.368301    2.810003   -0.375953
H     -1.576635    5.242871    1.929492
H     -2.228457    5.626161    0.320685
H     -0.492863    5.220924    0.458066
H     -3.679891   -2.602307   -1.508249
H      1.724764   -0.878979   -1.099335
H     -2.916271   -0.580607   -2.988861
H     -3.950962   -0.107757   -1.638959
H     -2.718540   -4.295462   -0.049781
H      3.665470   -2.211809   -1.798362
H     -3.071872    1.984727   -2.121001
H     -1.476630    1.301278   -2.669918
H      3.982988    0.764031    2.075763
H      0.358769   -1.544566    1.058723
H     -2.390539    1.079600    0.244371
H      0.002142    0.580953   -1.510419
H     -0.689377   -5.030050    1.148481
H     -0.125834   -3.806219    2.316301
H      1.073320    2.096861    2.600892
