42

C      3.228635   -0.873531    0.940901
C      2.891664    0.293145   -1.204130
C     -0.521883    3.899908    0.649286
C     -2.243905   -2.282252    0.618958
C     -0.439015   -2.324002   -1.082634
C      0.871780   -1.890368   -0.562296
C     -1.834266    1.801207    1.145917
C     -1.880148    0.312276    0.989334
C      0.094489    1.770211   -0.406364
C      2.311721    0.011131    0.143009
C     -0.710210    2.434556    0.413211
C     -1.637022   -1.581019   -0.600039
C      0.899042   -0.536252    0.077242
C     -0.025864    0.342385   -0.686955
C     -1.456226   -0.123150   -0.392640
O     -2.249410    0.648705   -1.276513
H      3.369357   -1.873977    0.487867
H      2.881757   -0.968027    1.996923
H      4.228427   -0.390764    0.936402
H      3.837128   -0.306992   -1.331663
H      3.236156    1.363134   -1.310878
H      2.235128    0.002424   -2.047237
H      0.237619    4.302986   -0.055201
H     -1.486877    4.378879    0.383283
H     -0.244398    4.084909    1.707459
H     -2.277113   -3.372187    0.367512
H     -3.304107   -1.965877    0.696081
H     -1.658817   -2.139800    1.522847
H     -0.585319   -3.400574   -0.769722
H     -0.435145   -2.382668   -2.209706
H      1.338696   -2.608948    0.169655
H      1.608834   -1.845581   -1.417301
H     -1.712525    2.067921    2.228357
H     -2.771583    2.248170    0.765565
H     -1.307111   -0.148276    1.794397
H     -2.936872   -0.002927    1.112353
H      0.883809    2.333761   -0.889470
H      2.259999    0.988591    0.691648
H     -2.436249   -1.711146   -1.389553
H      0.583168   -0.677366    1.149031
H      0.121970    0.105963   -1.782145
H     -2.965315    0.015425   -1.572791
