52

C      1.671540    0.840938    6.244147
C      1.612197   -2.353510   -4.424410
C      5.123086   -3.004019   -0.574472
C     -3.470643    2.603841   -2.436913
C     -3.663626    1.149229   -2.818006
C      0.021194    1.038140    3.920415
C     -0.760995    1.125711    2.800720
C     -3.868241    2.571442   -0.968093
C     -1.684535    0.125321   -1.858504
C      1.620065   -0.166125    2.659727
C      0.810417   -1.159606   -1.954673
C      2.417548   -1.305417    0.284670
C     -2.486389    1.385827    0.570412
C     -3.106703    0.462260   -1.579174
C      1.219356    0.393559    3.870759
C     -0.400728    0.580150    1.571498
C     -0.802325    0.091323   -0.672912
C      0.828050   -0.074026    1.542183
C      0.403424   -0.573500   -0.783768
C      1.222148   -0.656936    0.326713
C     -1.228042    0.675065    0.480692
C      1.997991   -1.819369   -2.042994
C      2.827318   -1.904898   -0.919686
N     -3.365244    1.325224   -0.514769
O      2.006207    0.306816    5.005458
O      2.363221   -2.391013   -3.238199
O      3.975959   -2.533705   -0.978081
H      0.836568    0.293311    6.734845
H      2.546624    0.758758    6.956047
H      1.414157    1.902177    6.186786
H      1.300591   -1.307494   -4.627153
H      2.232753   -2.748605   -5.258131
H      0.688050   -2.990419   -4.371131
H      5.150701   -4.094208   -0.252764
H      5.640548   -2.439034    0.265281
H      5.912319   -2.959737   -1.391617
H     -2.390700    2.866914   -2.526362
H     -4.130295    3.275139   -3.027009
H     -3.097499    0.879739   -3.733358
H     -4.751707    0.939828   -2.925302
H     -0.308496    1.481163    4.863521
H     -1.692630    1.640983    2.877564
H     -3.493424    3.462088   -0.428090
H     -4.997393    2.594237   -0.984023
H     -1.245350    0.741936   -2.636004
H     -1.692886   -0.940806   -2.248899
H      2.576407   -0.650527    2.711598
H      0.162940   -1.084401   -2.828849
H      3.058915   -1.377734    1.135009
H     -3.058967    1.032352    1.485546
H     -2.242885    2.476543    0.767455
H     -3.700591   -0.484926   -1.424351
