27

C      0.818487   -0.729879   -1.901848
C     -1.995315    2.317351   -0.214934
C      3.093329    0.368005    1.972425
C     -2.140052   -0.571984    0.268395
C     -0.317876   -1.061569   -1.026008
C     -0.941694    1.312030   -0.610318
C      2.145446   -0.699270    1.493019
C     -1.414268   -0.033735   -0.975985
C     -0.008293   -1.239816    0.415641
O      0.194873    1.690950   -0.594560
O      2.407243   -1.920887    1.615843
O     -1.168756   -1.022609    1.122432
O      0.966229   -0.331960    0.907329
H      0.423098   -0.371065   -2.881850
H      1.350349   -1.694051   -2.152943
H      1.520681    0.016078   -1.544510
H     -1.604258    3.353721   -0.273417
H     -2.333082    2.135735    0.833363
H     -2.873893    2.166432   -0.882892
H      4.134951    0.037699    1.920833
H      3.004319    1.272303    1.316575
H      2.840101    0.662868    3.002313
H     -2.716360   -1.457789   -0.108384
H     -2.830166    0.162753    0.682613
H     -0.787388   -2.009220   -1.396851
H     -2.079851   -0.048855   -1.843583
H      0.312147   -2.303236    0.568677
