20

C     -2.910947   -0.433129   -0.326345
C     -1.640855    0.132541    0.239198
C      1.629471    0.861136   -1.005740
C      0.646700    0.410087    0.068499
C      1.309495   -0.467755    1.047910
N     -0.476061   -0.214110   -0.570985
O      2.059706   -0.253210   -1.720198
O      0.971320   -1.652055    1.176107
O      2.357142    0.041792    1.860809
H     -2.847805   -1.530040   -0.426167
H     -3.740906   -0.137636    0.365540
H     -3.063462    0.016278   -1.337734
H     -1.492094   -0.136233    1.309637
H     -1.696656    1.263892    0.215505
H      1.145421    1.528542   -1.737611
H      2.476754    1.353803   -0.527372
H      0.332397    1.328838    0.579190
H     -0.408888   -1.223574   -0.712507
H      2.881709   -0.582116   -1.317499
H      2.467557   -0.307051    2.819761
