69

C     -1.055885    3.582538    2.243776
C     -4.657040   -0.873866   -1.177476
C     -4.750298    0.618631    0.749438
C     -1.912964   -2.328849   -0.982484
C      2.264359    0.658560    1.568268
C      0.167573   -0.229181   -2.432331
C      0.843008   -1.845080   -0.164731
C     -2.959140   -2.100756    1.862716
C      5.393639   -1.454047   -0.728092
C     -1.747436   -1.904802    1.372730
C      2.235685   -1.335912    0.051587
C      6.259703   -2.184939    0.024490
C     -2.281990    0.682241   -1.267197
C      5.348101   -0.730177    1.339101
C     -0.989231    3.186538    0.810066
C      4.789809   -0.504143    0.100542
C     -0.171892   -0.767048   -0.010612
C     -2.551772   -0.113907   -0.016140
C     -4.108094   -1.689130    1.063763
C     -0.946525    1.410486   -0.930500
C      3.802784    0.475777   -0.307377
C      1.802378    2.276785   -0.871802
C      3.009807    2.684691   -0.129153
C     -3.983761   -0.550171    0.118469
C     -1.574610   -1.269529    0.017605
C      2.372169    0.145131    0.131644
C      0.118493    0.321586   -1.013043
C      1.437385    0.950763   -0.705533
O     -0.909500    4.107095   -0.038031
O     -5.187965   -2.280242    1.165541
O      3.186354    3.885912    0.272787
O      6.199365   -1.722850    1.235857
O     -1.009727    1.898022    0.373482
O      4.047016    1.783891    0.187417
O      2.066486    1.403971   -2.001134
H     -2.119971    3.652567    2.542474
H     -0.583601    2.847995    2.908305
H     -0.606211    4.566596    2.439127
H     -4.178103   -0.361112   -2.050076
H     -5.724613   -0.504212   -1.201612
H     -4.733540   -1.962698   -1.341049
H     -4.743398    1.473789    0.043510
H     -4.324888    0.869876    1.743759
H     -5.805204    0.277374    0.831096
H     -2.387037   -1.951109   -1.907563
H     -2.720718   -2.970947   -0.518199
H     -1.069575   -3.006441   -1.123752
H      2.029191   -0.147354    2.277064
H      3.196957    1.139722    1.921513
H      1.484821    1.463527    1.656506
H      1.240426   -0.262351   -2.794118
H     -0.198645   -1.245465   -2.536807
H     -0.329984    0.448616   -3.161652
H      0.628159   -2.644093    0.574586
H      0.834129   -2.332876   -1.160242
H     -3.146201   -2.553309    2.831386
H      5.206599   -1.587628   -1.786302
H     -0.912352   -2.216252    1.979140
H      2.951865   -1.720252   -0.721147
H      2.643979   -1.751472    1.020588
H      6.881066   -3.008601   -0.355456
H     -3.061867    1.386560   -1.544159
H     -2.049708    0.058430   -2.151218
H      5.150226   -0.211966    2.246505
H      0.007293   -0.300712    1.003549
H     -2.320097    0.534525    0.852726
H     -0.808304    2.111569   -1.732479
H      3.764057    0.561675   -1.414612
H      1.258963    3.158046   -1.285038
