20

C     -2.189701   -0.744726    0.988013
C     -1.811683    0.111973   -0.204906
C      1.846815   -0.566685   -0.670322
C      0.577275   -0.015226   -0.010432
C      0.792209    1.447062    0.084686
N     -0.578449   -0.266641   -0.815792
O      1.696655   -1.929054   -0.836639
O      0.087897    2.294774   -0.453542
O      1.881429    1.887807    0.845298
H     -1.390423   -0.713561    1.735194
H     -2.477655   -1.775267    0.697999
H     -3.093717   -0.286117    1.448912
H     -1.828723    1.156065    0.162818
H     -2.643281    0.016026   -0.964762
H      2.054000   -0.105734   -1.634008
H      2.676682   -0.399502    0.049508
H      0.457241   -0.437330    0.996442
H     -0.467807   -0.032398   -1.811431
H      2.575844   -2.374651   -1.015580
H      1.835393    2.733186    1.408542
