29

C     -3.842428   -0.704219   -1.002314
C     -2.448105   -0.116947    1.511875
C     -2.440009   -0.207840   -0.939950
C      3.427468    1.318465    0.132324
C      4.233155    0.210701    0.132372
C      2.064239    1.169485    0.163335
C      2.260447   -1.166518    0.195107
C     -0.710418    1.056350    0.223507
C     -2.176289    0.676704    0.260211
C      3.633545   -1.040010    0.164229
C      1.455577   -0.062086    0.195087
O      4.438859   -2.168447    0.164600
O      0.071281   -0.121997    0.225164
H     -4.285715   -0.503624   -1.985829
H     -4.509148   -0.254283   -0.238597
H     -3.832556   -1.811569   -0.803907
H     -1.601772   -0.816388    1.660102
H     -2.602937    0.556470    2.371222
H     -3.363238   -0.747138    1.425147
H     -2.208636    0.363387   -1.860178
H     -1.688561   -1.044923   -0.884322
H      3.856040    2.320358    0.107911
H      5.304005    0.295898    0.108518
H      1.468585    2.073405    0.162006
H      1.782722   -2.142417    0.220184
H     -0.544173    1.647328   -0.695340
H     -0.427217    1.700873    1.078894
H     -2.752377    1.616043    0.204864
H      5.437656   -2.097063    0.142434
