69

C     -0.510849    5.147465    0.439549
C     -4.525288   -0.202521    1.200332
C     -4.815132   -0.204754   -1.251328
C     -1.859685   -1.566534    1.803797
C      2.236338   -0.557160   -2.091568
C      0.627223    0.373398    1.901800
C      0.838795   -1.957424    0.273366
C     -3.093620   -3.128970   -0.450551
C      5.456578   -1.154756   -1.010947
C     -1.843479   -2.760646   -0.228426
C      2.203540   -1.334860    0.215156
C      6.389262   -1.889263   -0.313772
C     -2.226304    0.941045   -0.358597
C      5.269602   -0.724239    1.120715
C     -0.892009    3.784079    0.899618
C      4.724612   -0.399481   -0.123693
C     -0.241246   -0.965016   -0.025656
C     -2.577732   -0.495978   -0.369618
C     -4.230600   -2.252080   -0.149228
C     -1.078046    1.338304    0.489391
C      3.624177    0.540789   -0.344520
C      1.369860    2.009809   -1.232178
C      2.667718    1.961030   -2.004524
C     -4.029002   -0.780427   -0.062799
C     -1.612103   -1.407510    0.346208
C      2.288425   -0.116955   -0.626593
C      0.108174    0.431364    0.474340
C      1.235786    0.916779   -0.383858
O     -1.384294    3.618835    2.062756
O     -5.391741   -2.696927    0.043290
O      2.777767    2.383816   -3.184205
O      6.238892   -1.598098    0.958909
O     -0.737163    2.678183    0.120925
O      3.833944    1.433428   -1.435684
O      1.654440    2.211716    0.122554
H      0.552623    5.307721    0.732245
H     -0.550048    5.229576   -0.663853
H     -1.158869    5.882542    0.950723
H     -4.992544   -1.000840    1.850158
H     -3.794358    0.408768    1.764311
H     -5.373982    0.487208    0.981058
H     -4.861172    0.894066   -1.191049
H     -5.862655   -0.573808   -1.111211
H     -4.385787   -0.586856   -2.190358
H     -1.113577   -2.318300    2.196866
H     -1.784262   -0.703450    2.441964
H     -2.842849   -2.048967    1.990000
H      1.421258   -0.056931   -2.652579
H      2.036830   -1.649342   -2.178341
H      3.176894   -0.366291   -2.618979
H      0.606658   -0.651147    2.312869
H      1.609071    0.857742    1.969583
H     -0.031384    0.960560    2.600500
H      0.664556   -2.525464    1.212017
H      0.796098   -2.732319   -0.548984
H     -3.333686   -4.109081   -0.870903
H      5.348694   -1.192273   -2.082145
H     -1.068269   -3.455363   -0.472256
H      2.666266   -1.158730    1.219957
H      2.915362   -2.087035   -0.248344
H      7.133752   -2.589097   -0.667606
H     -3.131778    1.506542    0.011557
H     -2.052064    1.386102   -1.382850
H      4.986201   -0.352914    2.096586
H     -0.255876   -0.852219   -1.152835
H     -2.486661   -0.817511   -1.459376
H     -1.482158    1.470537    1.539553
H      3.521297    1.226689    0.548465
H      0.629579    2.633444   -1.751705
