47

C     -4.801263   -1.160882    0.164433
C      2.443108   -2.772079    1.107484
C     -3.802898   -1.337793   -0.909513
C      5.214049    1.542661    0.823348
C      5.655602    0.320224    1.276349
C      3.925560    1.743985    0.379559
C      4.748228   -0.719472    1.272061
C     -1.012237   -0.600496    0.982734
C      0.772605    1.648997   -0.553064
C     -1.571485   -0.914091   -1.887174
C     -2.812290    2.028260   -1.066975
C     -2.629580   -0.766786   -0.818834
C      3.027368    0.690045    0.381767
C     -2.212289    0.085712    0.341567
C      1.700805    0.607944    0.000272
C     -1.695886    1.383121   -0.241085
C      3.452168   -0.541975    0.832186
C     -0.487110    1.067359   -1.094093
C     -0.071345   -1.058274   -0.104561
C      1.326605   -0.692491    0.225822
N      2.385315   -1.352255    0.719525
N     -0.371233   -0.351818   -1.355935
O     -3.918614    2.292076   -0.277772
H     -5.168088   -0.119208    0.151290
H     -4.339466   -1.316200    1.176030
H     -5.691631   -1.808295    0.026570
H      2.717568   -3.365589    0.207033
H      1.412947   -3.114201    1.397950
H      3.159537   -2.948628    1.914845
H     -4.020776   -1.939005   -1.786367
H      5.893250    2.366342    0.814714
H      6.688796    0.178076    1.627125
H      3.573903    2.704127    0.022290
H      5.102516   -1.678659    1.629893
H     -0.517029    0.044849    1.732093
H     -1.383202   -1.491548    1.562033
H      0.587289    2.453763    0.211619
H      1.338309    2.156498   -1.366153
H     -1.405544   -2.026466   -1.955523
H     -1.892463   -0.489238   -2.846047
H     -2.472710    2.995114   -1.483802
H     -3.073509    1.396142   -1.951369
H     -3.029090    0.242858    1.064011
H     -1.458591    2.122344    0.556698
H     -0.702991    1.521144   -2.108884
H     -0.191014   -2.156888   -0.244245
H     -4.393190    3.130696   -0.549905
