42

C      0.004939    3.002654   -0.524391
C      2.705609    0.027120   -1.128590
C      3.222016    1.207448    1.045193
C     -2.732101   -2.310821    0.286691
C     -1.848184    1.865562    0.645877
C     -1.993222    0.400306    1.046068
C      1.022319   -1.901090    0.275934
C     -0.357425   -2.287491    0.808255
C     -0.974518    1.888767   -0.593584
C     -1.500679   -0.284249   -0.193898
C      1.414484   -0.637461    0.945369
C     -0.285947    0.509199   -0.523990
C      0.757332    0.587355    0.518146
C      2.201112    0.431571    0.208468
C     -1.369144   -1.736459   -0.126124
O     -1.121631   -2.230477   -1.416147
H     -0.412572    3.792932    0.162416
H      1.006907    2.711343   -0.196662
H      0.027377    3.506754   -1.530706
H      1.975731   -0.387175   -1.817470
H      3.571082   -0.678082   -0.967593
H      3.180990    0.920974   -1.629018
H      2.682944    2.074219    1.474117
H      3.643363    0.537015    1.815255
H      4.054806    1.587910    0.410235
H     -3.518651   -1.640453   -0.119817
H     -2.882156   -3.316450   -0.143227
H     -2.795267   -2.271222    1.381343
H     -2.882147    2.230763    0.425712
H     -1.406865    2.428074    1.489210
H     -3.049919    0.117522    1.203642
H     -1.375657    0.170910    1.933297
H      1.717151   -2.711257    0.637343
H      1.042214   -1.897569   -0.814541
H     -0.478810   -1.869576    1.821715
H     -0.426392   -3.394116    0.788998
H     -1.662861    1.929255   -1.462056
H     -2.262966   -0.048491   -0.996302
H      1.693958   -0.773498    2.032255
H      0.087132    0.335326   -1.557006
H      0.553423    1.326775    1.349317
H     -1.227774   -3.213815   -1.414925
