47

C      4.856684    1.089347    0.357380
C     -2.284476    2.663695    1.417977
C      3.945701    0.461073    1.304024
C     -5.226847   -0.621378   -1.398071
C     -5.636392    0.531484   -0.759951
C     -3.903645   -1.001896   -1.320226
C     -4.710233    1.274081   -0.059988
C      1.038055    1.139312   -0.398718
C     -0.656324   -1.387069   -0.780260
C      1.781732   -0.595995    1.912836
C      2.798578   -2.184275   -0.834671
C      2.756489    0.059684    0.962619
C     -2.996417   -0.238994   -0.611875
C      2.280519    0.231863   -0.425447
C     -1.624925   -0.360425   -0.356590
C      1.758478   -1.117598   -0.883886
C     -3.374651    0.918399    0.036745
C      0.586284   -1.471839    0.028702
C      0.233588    0.743862    0.804478
C     -1.211472    0.698227    0.421210
N     -2.293302    1.450967    0.640040
N      0.530387   -0.647006    1.190656
O      2.227490   -3.377500   -1.271091
H      4.537339    2.066249   -0.030579
H      4.916963    0.415879   -0.548745
H      5.885230    1.097837    0.763784
H     -3.299573    2.938055    1.780359
H     -1.641945    2.468737    2.320415
H     -1.821760    3.512660    0.877474
H      4.263618    0.320734    2.330013
H     -5.968074   -1.206329   -1.952286
H     -6.681849    0.803200   -0.839926
H     -3.565826   -1.898854   -1.812049
H     -5.042641    2.171725    0.433634
H      1.338831    2.205818   -0.389006
H      0.460379    0.985850   -1.334192
H     -1.168456   -2.394069   -0.807618
H     -0.447020   -1.179877   -1.871490
H      1.623504    0.033385    2.810511
H      2.070661   -1.625428    2.153597
H      3.199813   -2.370339    0.172031
H      3.600793   -1.938520   -1.559793
H      2.977402    0.695600   -1.107371
H      1.434108   -0.987602   -1.933031
H      0.738264   -2.526201    0.382630
H      0.440292    1.429357    1.622693
H      1.274645   -3.275886   -1.436950
