20

C      0.706875    1.894259   -0.645990
C     -0.963007   -1.446506   -0.232130
C     -1.882417   -0.497654    0.484647
C      0.178761   -0.625168   -0.771596
C     -0.986736    0.631682    0.830531
C      1.499578   -1.179144   -0.347690
N     -1.034948    1.430146    1.847114
N     -0.011699    0.689846   -0.203929
O      1.819513   -2.317925   -0.755946
O      2.354252   -0.459811    0.474789
H     -0.325964    2.188113    1.957100
H      0.275959    2.164924   -1.648438
H      0.512295    2.730596    0.034297
H      1.768114    1.630515   -0.699966
H     -1.509980   -1.948821   -1.077132
H     -0.613336   -2.281014    0.421893
H     -2.651363   -0.116032   -0.227780
H     -2.352876   -0.947518    1.378518
H      0.184865   -0.610452   -1.884997
H      3.032115   -0.930035    1.066705
