42

C      3.000087   -1.002406    0.553234
C      2.927754    1.403955    0.483366
C     -2.071150    3.548895    0.056681
C     -1.797068   -2.770585    0.093478
C     -2.176308    1.329398    1.429947
C     -2.147430   -0.075192    0.887294
C      0.996322   -1.098930   -1.680843
C      0.383505   -2.208420   -0.901555
C     -0.433895    1.780349   -0.127271
C      2.670339    0.168290   -0.320178
C     -1.526200    2.220702    0.428884
C      1.238915    0.119457   -0.861369
C      0.215973    0.464845    0.159941
C     -0.764099   -0.569423    0.535547
C     -0.990069   -1.654134   -0.495722
O     -1.604852   -1.100924   -1.590380
H      2.271361   -1.108232    1.405264
H      3.963394   -0.722233    1.079787
H      3.210284   -1.930495    0.031927
H      2.421334    2.306331    0.099370
H      4.021531    1.615945    0.446593
H      2.716781    1.241600    1.581676
H     -2.126208    3.670035   -1.047479
H     -3.106725    3.656476    0.451991
H     -1.486206    4.369829    0.539479
H     -2.882841   -2.594200   -0.079214
H     -1.475065   -3.712174   -0.410136
H     -1.644005   -2.906211    1.178406
H     -1.702521    1.401404    2.410856
H     -3.227201    1.634570    1.498026
H     -2.804247   -0.128092   -0.006733
H     -2.602579   -0.755835    1.634898
H      1.927268   -1.374211   -2.209625
H      0.266404   -0.855602   -2.511200
H      0.258120   -3.134005   -1.497221
H      0.879118   -2.484868    0.025179
H      0.067056    2.399101   -0.863048
H      3.395792    0.165456   -1.161617
H      1.236157    0.967549   -1.619259
H      0.805711    0.701640    1.104644
H     -0.416264   -1.138092    1.453273
H     -1.888273   -1.841563   -2.186891
