57

C      3.314763    0.144078    3.202649
C      4.527756   -0.533747   -1.624184
C      5.721854   -0.394892   -0.934193
C      3.341522   -0.274284    0.372355
C     -6.105301    1.499328    0.777322
C     -4.797235   -0.172386   -0.270278
C      0.592228    0.895724   -0.473279
C      0.880756   -2.648050   -2.468611
C      3.303998   -0.478014   -0.994801
C     -6.004393    0.462727   -0.128686
C      1.261800    0.674734   -1.813384
C     -0.288598   -0.053441   -0.174907
C      1.188450   -1.744499   -1.264586
C      5.706108   -0.196140    0.410354
C     -5.035736    1.915196    1.541517
C      4.510827   -0.134440    1.073982
C     -3.731395    0.248204    0.496892
C      2.076009   -0.630607   -1.775535
C     -3.826974    1.282608    1.402744
C     -0.237804   -1.264399   -1.028117
C     -2.641918    1.640147    2.153454
C     -1.279578    1.236619    1.716349
C     -1.291862   -0.018652    0.900793
C      0.136222    0.377299   -2.748813
C     -0.565519   -0.925459   -2.490862
O     -7.127294    0.070091   -0.891038
O      6.902472   -0.057254    1.100421
O     -5.113656    2.951429    2.455664
O     -2.767078    2.308498    3.201052
O     -0.515505    1.073018    2.879042
O     -0.187318    1.127251   -3.646798
O     -1.910909   -0.854495   -2.715681
O      4.504596    0.069638    2.451759
O      0.009389   -1.920850   -3.241163
O     -2.520172   -0.379764    0.363653
H      2.843232   -0.846694    3.344844
H      2.530499    0.775666    2.691227
H      3.460565    0.605894    4.184800
H      4.607634   -0.689701   -2.691844
H      6.669712   -0.447805   -1.487077
H      2.413902   -0.221970    0.919822
H     -7.068747    1.988525    0.874012
H     -4.701353   -0.993477   -0.982283
H      0.837621    1.738696    0.128329
H      1.811357   -2.926137   -2.974128
H      0.330288   -3.549629   -2.097385
H      1.875600    1.517394   -2.114592
H      1.600945   -2.295219   -0.426730
H      2.355631   -0.785775   -2.839343
H     -0.835208   -2.090156   -0.650261
H     -0.853145    2.114877    1.194002
H     -1.005097   -0.857819    1.605476
H     -7.695079   -0.645902   -0.453683
H      7.780054   -0.099462    0.635452
H     -5.975629    3.445659    2.593804
H     -0.839854    0.217784    3.285532
H     -2.173438   -1.249965   -3.592710
