57

C     -6.735269   -1.828061    0.843393
C     -2.819720    0.829518   -0.977989
C     -3.920886    1.076154   -1.807854
C     -4.134656   -0.588952    0.343086
C      5.744016   -1.329434   -0.585716
C      4.826121    0.429970    0.728009
C      0.030809   -0.131774   -0.754690
C     -1.069256    0.801143    3.047671
C     -2.925489   -0.009802    0.107045
C      5.771788   -0.555558    0.553463
C     -0.664017   -1.029719    0.243278
C      0.705304    0.864985   -0.141830
C     -1.150506    0.991997    1.524246
C     -5.141260    0.480240   -1.554279
C      4.773691   -1.104300   -1.527075
C     -5.248045   -0.358576   -0.470351
C      3.866655    0.628073   -0.237727
C     -1.764777   -0.253124    0.958713
C      3.807141   -0.126239   -1.390262
C      0.360669    1.075087    1.272380
C      2.772507    0.130034   -2.371193
C      1.947082    1.357399   -2.241422
C      1.709445    1.696912   -0.793402
C      0.359013   -1.321358    1.291056
C      0.757462   -0.137831    2.132779
O      6.761383   -0.770061    1.534839
O     -6.231388    0.747784   -2.407499
O      4.722841   -1.876382   -2.693778
O      2.594851   -0.680141   -3.301427
O      2.738563    2.406965   -2.765200
O      0.866025   -2.384178    1.503341
O      2.105753   -0.129467    2.415666
O     -6.477877   -0.950106   -0.226707
O     -0.051447   -0.097815    3.246733
O      2.912816    1.620281   -0.064110
H     -7.023154   -1.286015    1.775598
H     -5.862696   -2.479569    0.987378
H     -7.567036   -2.510329    0.499657
H     -1.918344    1.346362   -1.268243
H     -3.866685    1.727652   -2.662724
H     -4.252229   -1.241470    1.170735
H      6.501026   -2.100722   -0.700323
H      4.876359    1.025001    1.641099
H     -0.008601   -0.270604   -1.806927
H     -0.796969    1.817235    3.439668
H     -2.052557    0.486959    3.413766
H     -1.004534   -1.958259   -0.197648
H     -1.641118    1.917642    1.253009
H     -2.093873   -0.965236    1.774725
H      0.713626    2.006564    1.708218
H      1.013148    1.287141   -2.796483
H      1.388992    2.770733   -0.747960
H      7.628893   -0.261537    1.460988
H     -7.094745    0.281047   -2.167665
H      5.409059   -2.606031   -2.841426
H      3.513471    2.562708   -2.137456
H      2.338625   -1.022940    2.768828
