98

C     -8.779745    4.417518    2.230269
C    -12.016804   -0.947658   -1.257483
C     10.017303   -0.368794   -3.278541
C      7.288782    2.984898    2.437155
C     10.198950    3.880510   -1.092559
C     -7.280805    0.067793    0.122797
C      5.905869   -0.870759   -0.387835
C     -6.137897    0.553477    0.539914
C      5.665136   -1.858154   -1.219821
C     -8.641716    1.968716    0.920150
C     -9.719128    0.227786   -0.212000
C      8.041084   -0.090919   -1.354786
C      7.180734    1.028308    0.508911
C      1.357991   -2.864457    2.653407
C     -2.487760   -0.397381    0.613313
C      0.552846   -3.222495   -1.733673
C     -8.523592    0.764655    0.286210
C      7.049795    0.014759   -0.427738
C     -9.875379    2.628480    1.066404
C    -10.935452    0.851161   -0.083032
C      9.133297    0.777114   -1.361020
C      8.246128    1.890120    0.519090
C      1.008744   -3.933231    1.642254
C     -1.384424    0.464829    1.126760
C     -4.882209   -0.218729    0.343117
C      4.512179   -2.747035   -1.173301
C    -11.026582    2.065689    0.561983
C     -1.350921    1.718108    0.264114
C      2.283636   -4.392732    0.995460
C     -0.178397    1.677162   -0.692880
C      0.118802    0.298792   -1.225012
C      9.251394    1.775915   -0.428088
C      2.405457   -3.541935   -0.203410
C      0.127967   -0.707544   -0.115085
C      1.046660   -2.855357   -0.334780
O      0.237586   -2.302322    3.251879
O     -0.755892   -2.853160   -1.978457
O     -4.850721   -1.330704   -0.195043
O      4.411688   -3.647400   -2.025670
O    -12.230242    2.737027    0.720328
O     -1.276830    2.812760    1.117988
O      2.268355   -5.760624    0.713447
O     -0.417001    2.582432   -1.714704
O      1.361391    0.403819   -1.857972
O     -9.964747    3.852200    1.716652
O    -12.114251    0.306573   -0.583964
O     10.133908    0.656010   -2.313546
O      8.316022    2.878107    1.480818
O     10.301952    2.673982   -0.368185
O     -3.711905    0.354446    0.790771
O     -0.119122   -0.130316    1.110302
O      3.498945   -2.665400   -0.230571
O      0.244110   -3.485717    0.588175
O      1.238557   -1.529728   -0.127973
H     -8.376205    3.663372    2.963886
H     -8.008796    4.528519    1.439212
H     -8.938528    5.381109    2.724254
H    -11.726544   -1.765140   -0.571054
H    -12.975361   -1.180208   -1.801983
H    -11.253438   -0.903454   -2.066301
H      9.060875   -0.244972   -3.845291
H     10.908259   -0.247404   -3.955063
H     10.059637   -1.379425   -2.785929
H      7.094414    2.008090    2.967874
H      6.358618    3.320095    1.933777
H      7.628420    3.746756    3.176934
H     10.408186    3.739813   -2.168135
H     10.908516    4.595542   -0.668322
H      9.160726    4.269889   -0.955779
H     -7.265130   -0.900002   -0.362698
H      5.153849   -0.727855    0.401883
H     -6.085203    1.504996    1.024238
H      6.430416   -1.987326   -2.009283
H     -7.764593    2.444192    1.329680
H     -9.637155   -0.721365   -0.715834
H      8.046068   -0.829039   -2.116961
H      6.419190    1.154343    1.262532
H      2.028039   -2.111821    2.187663
H      1.941378   -3.364328    3.453271
H     -2.478267   -0.532646   -0.510874
H     -2.582071   -1.371929    1.093610
H      1.261156   -2.867447   -2.518178
H      0.566270   -4.340362   -1.834401
H      0.486870   -4.775328    2.165475
H     -1.610613    0.757138    2.164467
H     -2.292012    1.763213   -0.305054
H      3.098862   -4.255060    1.741707
H      0.699107    2.059526   -0.103124
H     -0.683839    0.051686   -1.941164
H      2.583674   -4.250810   -1.073130
H     -0.727301   -1.394818   -0.281745
H      0.513541   -1.789649    4.041311
H     -1.418623   -3.551744   -1.858670
H    -13.079074    2.316874    0.347417
H     -2.221918    3.041916    1.367829
H      3.111391   -5.939062    0.186043
H     -0.770217    3.406762   -1.288152
H      1.223680    1.086766   -2.580481
