98

C      9.678586    1.908893   -3.853655
C      7.999361   -1.047632    2.488200
C     -8.913955   -3.470631    0.255208
C     -6.708106    2.703223   -2.879348
C     -9.297030   -1.171010   -3.824690
C      5.341228    0.415216   -1.612334
C     -4.982587   -0.155559    0.974978
C      4.887287    0.861382   -2.756647
C     -4.704879   -0.977544    1.957925
C      7.748282    0.916166   -2.103506
C      7.177366   -0.048522   -0.041043
C     -7.034031   -1.289611    0.108420
C     -6.318700    0.696047   -0.896845
C     -1.148890    3.750008    3.108054
C      1.148222    0.293043   -2.471634
C      0.878204   -0.014668    3.883848
C      6.751845    0.440148   -1.283346
C     -6.112823   -0.275074    0.078949
C      9.097404    0.922465   -1.745172
C      8.491264   -0.053750    0.335419
C     -8.107070   -1.380700   -0.751327
C     -7.382954    0.636316   -1.774131
C     -0.579794    2.444420    3.636194
C      0.374713   -0.322676   -1.284334
C      3.454625    0.829963   -3.076403
C     -3.556981   -0.828750    2.841104
C      9.470563    0.434274   -0.517586
C      0.453989   -1.797824   -1.281031
C     -1.645350    1.630841    4.312355
C      0.788689   -2.455223    0.026091
C      1.744293   -1.513431    0.733260
C     -8.293829   -0.398090   -1.718978
C     -1.516852    0.288382    3.632253
C      0.988290   -0.267950    0.994214
C     -0.188624    0.379153    2.902079
O     -2.201242    3.546148    2.219082
O      0.776540   -1.339230    4.283270
O      3.074836    1.269373   -4.183066
O     -3.374190   -1.659120    3.765842
O     10.797114    0.428141   -0.138217
O     -0.677465   -2.437154   -1.838405
O     -1.471169    1.558802    5.685687
O      1.378768   -3.690358   -0.113624
O      2.369961   -2.040436    1.821111
O     10.065858    1.411549   -2.603335
O      8.929930   -0.534211    1.561278
O     -9.021562   -2.422147   -0.695202
O     -7.593929    1.601550   -2.749092
O     -9.385586   -0.512086   -2.574661
O      2.521754    0.331904   -2.193432
O      0.560068    0.376460   -0.152562
O     -2.623015    0.192755    2.730745
O     -0.122319    1.725769    2.535162
O     -0.136908   -0.401542    1.786408
H      8.874297    2.680371   -3.683052
H     10.515779    2.405505   -4.387698
H      9.248220    1.099862   -4.449105
H      7.116734   -0.349106    2.559814
H      7.607479   -1.996319    2.087202
H      8.448537   -1.183889    3.497144
H     -8.054701   -4.088431   -0.069442
H     -8.699949   -3.054962    1.278007
H     -9.805542   -4.111907    0.267611
H     -6.419079    3.131596   -1.902500
H     -7.186751    3.531251   -3.455414
H     -5.764676    2.418859   -3.411795
H    -10.252152   -0.953247   -4.348517
H     -8.481276   -0.756130   -4.449954
H     -9.223052   -2.266102   -3.688259
H      4.635260    0.018940   -0.900179
H     -4.277119    0.675942    0.855854
H      5.547130    1.269154   -3.507670
H     -5.371014   -1.802584    2.109292
H      7.486445    1.306745   -3.073791
H      6.422100   -0.435291    0.640438
H     -6.918204   -2.066390    0.842284
H     -5.627275    1.509759   -0.960150
H     -0.384714    4.338139    2.578248
H     -1.480666    4.381476    3.971783
H      1.019567   -0.350389   -3.375707
H      0.721967    1.281403   -2.743735
H      1.918098    0.104658    3.467334
H      0.788469    0.577432    4.844187
H      0.199023    2.684212    4.362137
H     -0.710067   -0.104467   -1.583551
H      1.288438   -2.082684   -1.991976
H     -2.617031    2.114904    4.129703
H     -0.129566   -2.510590    0.645138
H      2.543412   -1.288656   -0.011411
H     -1.521537   -0.491983    4.393956
H      1.691240    0.474656    1.482919
H     -1.777313    3.294343    1.350392
H      0.264287   -1.860022    3.587833
H     11.497609    0.782499   -0.755824
H     -0.672315   -3.356493   -1.470155
H     -1.912226    0.714462    5.977066
H      2.361205   -3.602881   -0.117129
H      3.241724   -1.571110    1.957785
