35

C     -1.220152   -1.386157    2.108814
C     -5.304878    0.491554   -0.760559
C      5.367766   -0.141661    0.841308
C     -4.228134    1.330884   -0.946754
C     -5.098512   -0.770311   -0.247026
C      5.312444   -0.256504   -0.543981
C      4.394465    0.522219    1.546948
C     -2.951246    0.900433   -0.616760
C     -3.831419   -1.199211    0.081355
C      4.238268    0.323790   -1.188567
C      3.330329    1.090704    0.845101
C      0.142707    0.265734    0.057566
C      0.548080    0.433947   -1.378867
C     -2.757749   -0.350983   -0.108805
C      3.247545    0.993570   -0.526150
O     -0.833111   -2.254446   -0.397829
P     -1.138382   -0.955885    0.330165
S      1.862016    1.720834   -1.373453
H     -0.169766   -1.505341    2.436329
H     -1.741977   -0.559790    2.640067
H     -1.807873   -2.314240    2.185770
H     -6.306893    0.813195   -1.013929
H      6.196154   -0.584976    1.392458
H     -4.362739    2.341046   -1.354749
H     -5.940169   -1.421690   -0.103179
H      6.096438   -0.786899   -1.074525
H      4.456366    0.599013    2.631485
H     -2.137828    1.582942   -0.775656
H     -3.671087   -2.181869    0.480747
H      4.200847    0.232663   -2.267676
H      2.587547    1.601170    1.410074
H      1.059796   -0.065916    0.615406
H     -0.214288    1.254786    0.451109
H     -0.265458    0.764186   -2.021652
H      0.940894   -0.526787   -1.772582
