32

C     -3.085466   -2.324974   -0.526306
C      3.491093    0.066451    0.537041
C     -1.712188   -2.420461   -0.562794
C      2.586361    1.250781    0.553759
C     -3.734181   -1.136563   -0.296179
C      2.565778   -1.100143    0.493068
C      0.494693   -1.521325   -0.428592
C      0.234974    1.655141    0.172329
C     -0.948600   -1.270266   -0.359023
C      1.325857    0.707722   -0.134609
C     -2.970063   -0.013876   -0.097482
C     -1.585901   -0.059154   -0.124718
C     -2.163130    2.002659    0.267261
N     -3.280126    1.286046    0.148855
N      1.206691   -0.590532    0.427892
N     -1.103021    1.173931    0.098580
S     -2.017997    3.757721    0.592219
H     -3.678350   -3.228802   -0.686529
H      4.158112    0.125736   -0.356117
H      4.129213   -0.007541    1.457579
H     -1.161569   -3.329382   -0.739542
H      2.975369    2.143476    0.049083
H      2.278616    1.539556    1.598474
H     -4.815119   -1.045327   -0.264508
H      2.810300   -1.698548   -0.415059
H      2.667795   -1.781397    1.362222
H      0.852419   -1.397045   -1.481735
H      0.772111   -2.561085   -0.148261
H      0.303528    2.482478   -0.599390
H      0.447711    2.197140    1.130626
H      1.571212    0.634370   -1.211520
H     -2.616122    4.463210   -0.456624
