80

C      6.551932    1.349634   -2.816502
C      8.579392    0.459856   -1.528135
C      4.220421   -0.193431    2.335683
C     -0.540503   -2.939059   -0.609654
C     -3.836795    2.591194   -2.830060
C     -1.824703    1.403891    2.729748
C      6.915173    0.023769    0.734145
C      2.487933   -1.664658    0.734669
C     -5.629168   -1.052987    0.404880
C      6.369620    0.584634   -0.527334
C      6.246640   -1.279364    1.115814
C      3.951022   -1.798505    0.570629
C      1.659606   -2.361653   -0.023671
C     -4.380187   -1.236306   -0.328937
C     -3.759651    2.274774   -0.155408
C      0.041421    0.157307    0.777252
C     -3.605710    2.124108    1.295179
C     -1.197103    0.729139    0.196014
C     -6.512036    0.098713    0.074051
C     -3.338769    0.107875   -3.188327
C      7.133440    0.790992   -1.583315
C      4.799335   -1.114698    1.314242
C      0.184417   -2.210034    0.156584
C     -3.573178    1.199976   -2.260377
C     -3.537407    1.045234   -0.950975
C     -0.325517   -1.291068    1.179072
C     -3.279146   -0.297504   -0.380486
C     -1.777730   -1.244560    1.448369
C     -2.965819    0.905439    1.819795
C     -2.398342   -0.047615    0.815307
O     -6.931866    0.108768   -1.252343
O     -3.415993    0.409831   -4.443929
O     -2.451128   -2.427592    1.264273
O     -3.812655    0.254177    2.756187
H      6.702515    0.668263   -3.687290
H      7.021396    2.318441   -3.094960
H      5.462983    1.461673   -2.700654
H      9.069151    0.731903   -2.475348
H      8.713203   -0.632990   -1.387916
H      9.047464    1.021748   -0.675594
H      4.989751    0.409703    2.844109
H      3.627972   -0.818874    3.021920
H      3.535624    0.502187    1.822829
H     -0.065507   -3.618418   -1.336816
H     -1.596455   -2.951298   -0.625485
H     -4.798847    2.983788   -2.461896
H     -3.930429    2.483777   -3.920198
H     -2.972177    3.251217   -2.622521
H     -2.396138    1.913065    3.580819
H     -1.282052    2.220121    2.262249
H     -1.262901    0.622701    3.213271
H      6.860576    0.767311    1.573829
H      7.985405   -0.195420    0.575662
H      2.170481   -0.983619    1.510876
H     -6.284513   -1.970648    0.111347
H     -5.613378   -1.168099    1.506850
H      5.298635    0.826701   -0.558848
H      6.723171   -1.610790    2.068094
H      6.435234   -1.990872    0.307081
H      4.320592   -2.479014   -0.182911
H      2.083581   -3.013216   -0.743244
H     -4.769439   -1.385890   -1.441456
H     -4.030392   -2.307057   -0.171144
H     -3.047508    3.051805   -0.575094
H     -4.750393    2.675705   -0.449645
H      0.847813    0.117052   -0.019570
H      0.473262    0.719583    1.613261
H     -3.114249    3.079185    1.671631
H     -4.626236    2.214073    1.779959
H     -1.254682    1.794528    0.367793
H     -1.152355    0.537497   -0.911490
H     -7.485967   -0.124856    0.648153
H     -6.231053    1.075599    0.457613
H     -3.111743   -0.902608   -2.950125
H      0.286579   -1.469520    2.110131
H     -2.499976   -0.819857   -1.095091
H     -1.874779   -1.128868    2.618143
H     -7.863198   -0.192725   -1.386921
H     -2.350083   -3.079551    1.977172
H     -3.337886   -0.063716    3.537627
