46

C     -4.509858    2.946692   -1.380798
C     -3.999439   -2.580750   -1.670589
C      4.253718    0.482677   -0.680818
C      3.737107   -0.867389   -1.088366
C      3.357399    1.188406    0.302805
C     -1.023418    1.074695   -0.057537
C     -2.174932    1.700397   -0.493909
C      2.262313   -0.983341   -1.135474
C     -1.910487   -1.023312   -0.631142
C      1.833903    0.703722    2.144256
C      0.317283   -1.256276    1.821805
C     -0.853108   -0.287659   -0.109829
C      2.470340    0.105303    0.934348
C      0.593888   -0.003217    2.589461
C      0.384429   -0.974281    0.359821
C     -3.213633    0.957062   -1.007897
C     -3.060523   -0.407428   -1.067811
N      1.562072   -0.292537   -0.085906
O      0.665737   -0.356610    3.945372
O     -4.394775    1.535701   -1.461295
O     -4.096033   -1.156728   -1.581004
H     -4.379930    3.315818   -0.341845
H     -3.738347    3.378871   -2.061728
H     -5.533779    3.217651   -1.701824
H     -3.680642   -2.916207   -0.642193
H     -4.997337   -2.996655   -1.933197
H     -3.259555   -2.825695   -2.436426
H      5.231976    0.328407   -0.179064
H      4.471953    1.136476   -1.571038
H      4.136941   -1.056964   -2.128054
H      4.199583   -1.680429   -0.470772
H      3.886998    1.777744    1.054093
H      2.658284    1.830214   -0.293850
H     -0.217731    1.673539    0.342267
H     -2.301714    2.777031   -0.449223
H      2.003536   -2.076952   -1.016802
H      1.805496   -0.696885   -2.113712
H     -1.814228   -2.082019   -0.687264
H      1.608188    1.787154    2.021637
H      2.577195    0.650237    2.982158
H     -0.738306   -1.554591    2.052395
H      1.010538   -2.083031    2.084508
H      3.182334   -0.705164    1.243816
H     -0.307774    0.661489    2.512652
H      0.395803   -1.976389   -0.162080
H      1.598536   -0.388777    4.250053
