52

C      4.173705    1.749193   -0.479405
C     -3.204045    1.776552    0.877443
C     -3.449506   -0.624904    0.770469
C     -0.964178   -1.806539   -0.582143
C     -2.232216    0.153159   -2.316506
C      3.225248   -1.236811   -0.923117
C      1.736253   -1.522804   -0.911613
C     -0.891525    0.376650    1.774361
C     -3.155252    0.677407   -1.280000
C     -0.795580    0.160284   -1.976676
C      0.457779   -0.184376    2.064092
C      2.213849    1.307373    1.072309
C      2.643302   -0.928207    1.395504
C      3.408562    0.949718    0.251294
C      3.659735   -0.527297    0.357897
C     -1.237117    0.524807    0.342170
C      1.005288   -0.272586   -0.395911
C     -2.715399    0.504148    0.145177
C     -0.473023   -0.372805   -0.592264
C      1.463988   -0.028871    0.986126
H      3.927404    2.801097   -0.505000
H      5.023974    1.414394   -1.047731
H     -2.433324    2.586612    0.776099
H     -4.110861    2.183452    0.368804
H     -3.473731    1.564793    1.910789
H     -4.208315   -0.309190    1.546126
H     -4.090311   -1.146718   -0.002644
H     -2.860174   -1.404633    1.237772
H     -0.809127   -2.307349    0.390517
H     -2.002506   -1.846176   -0.954029
H     -0.358932   -2.328588   -1.382068
H     -2.501445   -0.884090   -2.679121
H     -2.342896    0.771921   -3.259121
H      3.561953   -0.726275   -1.824967
H      3.724889   -2.246899   -0.888226
H      1.469785   -1.670261   -1.999832
H      1.460737   -2.420824   -0.367215
H     -1.629293   -0.245035    2.363489
H     -0.951852    1.377914    2.267001
H     -3.404118    1.747860   -1.530168
H     -4.129097    0.143932   -1.419337
H     -0.436421    1.230139   -2.019222
H     -0.231208   -0.366067   -2.760638
H      0.883951    0.244513    2.997725
H      0.366383   -1.290641    2.280917
H      2.479188    1.547945    2.109566
H      1.631482    2.099431    0.564199
H      2.383151   -1.980329    1.397503
H      3.013211   -0.548708    2.372875
H      4.686348   -0.763487    0.640367
H     -0.907732    1.570029    0.040241
H      1.399020    0.527145   -1.060924
