25

C     -1.720291   -0.310281    0.643524
C      3.487696    0.135840    0.088448
C      0.609552   -1.720521   -0.067989
C     -3.041301    0.040734    0.673531
C      0.463497   -0.286828   -0.371465
C      2.265013    0.071790    0.962899
C     -3.603151    0.822726   -0.325653
C     -1.485973    0.866233   -1.343095
F     -3.802749   -0.402416    1.723272
N     -2.785339    1.223185   -1.332276
N     -0.946480    0.107855   -0.371675
O      3.802400    1.434217   -0.305816
O     -4.936362    1.166658   -0.278880
O     -0.729897    1.249777   -2.295037
O      1.130276    0.527378    0.435560
S      1.897595   -1.709772    1.213100
H     -1.287193   -0.918790    1.422897
H      3.386721   -0.485562   -0.822872
H      4.333236   -0.280958    0.683982
H      1.037670   -2.305182   -0.929147
H     -0.294447   -2.250657    0.238913
H      0.801812   -0.121669   -1.437892
H      2.501902    0.564129    1.926506
H      4.461597    1.871454    0.289868
H     -5.545785    0.710661    0.362401
