39

C     -3.028226    2.350636   -0.743898
C      3.792188   -0.937131   -0.769080
C     -0.742482   -1.760829   -1.311405
C      1.261266   -0.494181    0.477493
C      2.415387    0.413327    0.694808
C     -2.637630    1.228145    1.364313
C     -2.303141   -0.151007    1.811684
C      0.085126    0.241363   -0.130059
C     -3.079521   -1.131453   -0.239782
C     -2.682915    1.256602   -0.104532
C      3.595624    0.217568    0.121111
C     -1.900566   -1.115191    0.755658
C     -2.341874    0.058573   -0.888142
C      4.706009    1.131301    0.358111
C     -1.089169   -0.629681   -0.363378
O      4.509691    2.106961    1.120767
O      5.949288    0.961478   -0.220491
H     -3.075210    2.417216   -1.821817
H     -3.280044    3.234169   -0.177210
H      4.872831   -1.059124   -0.982071
H      3.299715   -0.793164   -1.768935
H      3.460155   -1.894624   -0.324799
H      0.227643   -1.558837   -1.846408
H     -1.497160   -1.926000   -2.095127
H     -0.585725   -2.718358   -0.778934
H      0.940403   -0.843654    1.479307
H      1.503059   -1.361895   -0.130905
H      2.332654    1.278323    1.338073
H     -3.612805    1.553293    1.826569
H     -1.915800    1.994582    1.780210
H     -3.246582   -0.584107    2.268665
H     -1.592403   -0.153453    2.693806
H     -0.126383    1.188975    0.406589
H      0.459193    0.584675   -1.142215
H     -4.040082   -0.854525    0.206577
H     -3.113818   -2.030116   -0.855804
H     -1.669367   -2.094592    1.177301
H     -2.439258    0.114945   -1.971193
H      6.589930    1.759789   -0.284206
