39

C     -1.847647   -1.739275   -1.942990
C      3.825608    0.702615   -0.123492
C     -0.436363    2.369991   -0.091933
C      1.088114   -0.070405   -0.520932
C      2.120847   -1.053993   -0.155882
C     -3.188091   -1.177122    0.003836
C     -2.812065   -0.313017    1.201523
C     -0.024951   -0.016727    0.534841
C     -2.950689    1.431657   -0.543878
C     -2.249761   -0.809710   -1.091026
C      3.386783   -0.728882    0.033377
C     -2.328938    1.043439    0.806820
C     -1.812420    0.606084   -1.163060
C      4.352325   -1.750341    0.391986
C     -1.012463    1.006195    0.067079
O      3.989087   -2.930503    0.521126
O      5.665948   -1.406880    0.587350
H     -2.195486   -2.744105   -1.842997
H     -1.163048   -1.516613   -2.757760
H      4.926148    0.723390   -0.113949
H      3.531244    1.090339   -1.141874
H      3.449976    1.324194    0.692426
H     -0.309657    2.629637   -1.173155
H      0.589704    2.445809    0.343999
H     -1.096591    3.167754    0.321694
H      0.678662   -0.359657   -1.500296
H      1.562014    0.913325   -0.641448
H      1.839909   -2.084443   -0.036225
H     -3.155813   -2.249577    0.259786
H     -4.248322   -0.970835   -0.308719
H     -2.108079   -0.874103    1.849032
H     -3.740198   -0.186962    1.789449
H     -0.451104   -1.011507    0.666954
H      0.406981    0.337892    1.485131
H     -2.772529    2.495042   -0.774632
H     -3.948872    1.033049   -0.716252
H     -2.476103    1.851112    1.517583
H     -1.444176    0.968702   -2.118214
H      6.360017   -2.145570    0.718313
