39

C      4.472454    1.253662   -0.892013
C      3.251568    0.889649   -0.062279
C     -3.165363    1.804370    1.728721
C      0.081273   -2.846134    0.300157
C     -2.101058    0.931420    1.493836
C     -0.815079   -1.805071    0.985074
C     -4.088717    2.037884    0.703353
C      2.750741   -0.431342   -0.570197
C      1.206216   -2.166508   -0.442704
C     -2.852792    0.540024   -0.705378
C      0.527360    0.060452    0.191040
C     -1.937697    0.298848    0.287915
C     -0.826104   -0.602779    0.066693
C     -3.930428    1.406056   -0.509470
N      1.577190   -0.903630    0.139104
O     -4.859247    1.656185   -1.505194
Cl     0.686668    0.000000    0.000000
H      5.306070    1.521647   -0.209289
H      4.768000    0.439295   -1.583882
H      4.281202    2.173036   -1.513673
H      3.514334    0.766833    1.006021
H      2.495418    1.690024   -0.220112
H     -3.303733    2.305879    2.669738
H      0.448192   -3.597604    1.039106
H     -0.502954   -3.415651   -0.453962
H     -1.383032    0.742091    2.272816
H     -0.350252   -1.551323    1.951397
H     -1.798824   -2.267118    1.100953
H     -4.906323    2.715910    0.901294
H      2.562223   -0.409469   -1.668805
H      3.546646   -1.193167   -0.417442
H      2.093992   -2.829747   -0.376819
H      0.978533   -2.051779   -1.529481
H     -2.764725    0.069341   -1.659671
H      0.696217    0.812025   -0.607848
H      0.560096    0.542539    1.198681
H     -0.864106   -1.018649   -0.973660
H     -4.667289    2.432799   -2.134019
H     -0.686668    0.000000    0.000000
