26

C      3.062094   -0.375277    0.947035
C     -3.750147    0.684227    0.511469
C      2.689599   -0.776791   -0.470494
C      1.886263    0.291823   -1.128052
C      0.595702    0.612244   -0.416802
C     -0.264849   -0.590395   -0.354277
C     -1.581233   -0.400757    0.325267
C     -2.470787    0.625168   -0.300228
Cl    -2.925740    0.046574   -1.935239
H      3.802058   -1.143236    1.313024
H      3.574272    0.608343    0.936462
H      2.173098   -0.321381    1.575763
H     -4.204652    1.662518    0.361712
H     -4.434313   -0.132222    0.194946
H     -3.473521    0.577450    1.590722
H      2.146640   -1.718134   -0.434163
H      3.667442   -0.946625   -1.009335
H      1.688017   -0.024267   -2.178398
H      2.544537    1.195789   -1.218359
H      0.868717    0.924978    0.617613
H      0.128863    1.456365   -0.967143
H     -0.391208   -1.010186   -1.368039
H      0.280613   -1.364593    0.261639
H     -1.436941   -0.141127    1.393223
H     -2.114738   -1.373961    0.313644
H     -2.059789    1.633475   -0.328176
