46

C      2.075024    3.308618   -0.665591
C     -4.207716   -1.913266   -2.798523
C     -4.070276   -1.117939    2.707749
C      0.003164    0.659064   -2.195533
C     -2.034335   -0.479386   -1.668186
C     -1.959495   -0.082925    1.049101
C      1.950067   -0.384984    1.652534
C      3.023929   -0.181574   -0.870690
C      0.138796    2.503436    0.350831
C      4.929849   -2.496382    1.232568
C     -0.959617    0.226311   -1.134657
C     -0.964471    0.400248    0.229741
C      1.349511    0.384749    0.703965
C      1.873838    0.495946   -0.559721
C      0.106753    1.133672    0.993571
C      1.151167    1.363596   -1.543332
C     -3.035162   -0.966899   -0.855780
C     -3.031208   -0.787408    0.511201
C      3.125116   -1.095109    1.382653
C      3.618017   -0.956133    0.102666
N      0.827246    2.577819   -0.885792
O     -4.095789   -1.665268   -1.397105
O     -4.046301   -1.284379    1.315732
O      3.959374   -1.940046    2.101148
O      4.769151   -1.732045    0.052594
H      2.857876    2.558242   -0.362705
H      2.410757    3.841463   -1.570946
H      1.969048    3.979117    0.212634
H     -4.391526   -0.955114   -3.302329
H     -3.185447   -2.264149   -3.122697
H     -4.965883   -2.685533   -2.990405
H     -3.833018   -0.035079    2.902166
H     -5.051244   -1.369334    3.134155
H     -3.298956   -1.760619    3.167628
H     -0.438615    1.315305   -2.938723
H      0.403306   -0.283536   -2.638535
H     -2.037068   -0.620866   -2.747757
H     -1.949509    0.062687    2.127857
H      1.550953   -0.491214    2.672149
H      3.420722   -0.080960   -1.871017
H      0.559107    3.208764    1.098689
H     -0.937109    2.809409    0.197220
H      4.705518   -3.550785    0.977775
H      5.944596   -2.455384    1.639496
H     -0.128592    1.216284    2.062255
H      1.898453    1.591587   -2.339250
