48

C     -3.896949    0.536747   -0.526965
C     -2.937914   -1.327151    0.730270
C      1.149045   -0.774034    0.546166
C      2.186478   -1.678850    0.521745
C      2.596238    0.851532   -0.344786
C     -1.079349    1.025985    0.401069
C     -2.767057   -0.470252   -0.484813
C      1.331131    0.509452    0.113889
C      3.441183   -1.322193    0.061602
C      3.641700   -0.030996   -0.378138
C      0.305354    1.559180    0.092024
N     -1.477222    0.111593   -0.615346
O      4.497185   -2.225217    0.031166
O      4.894906    0.322612   -0.836974
O      0.363043    2.218226   -1.109039
C     -0.525768   -0.777644    0.072518
C      0.716569   -0.296640   -0.643177
C     -1.423746    0.291003    0.522561
C      1.605618    0.541576    0.151863
O     -1.211305   -1.572628   -0.887653
O      1.404021   -1.477384   -1.012235
O     -1.054805    1.097913    1.405370
O     -2.700380    0.456641    0.002413
O      2.772490    0.103540    0.424167
O      1.329438    1.795131    0.662658
H     -4.835157   -0.045292   -0.688087
H     -3.768734    1.278879   -1.321425
H     -3.999234    1.012995    0.456603
H     -4.052123   -1.468262    0.860506
H     -2.470809   -2.331260    0.587790
H     -2.572057   -0.804412    1.611054
H      0.161308   -1.050262    0.907901
H      2.057329   -2.699727    0.860785
H      2.795587    1.868256   -0.702805
H     -1.131766    0.590944    1.398060
H     -1.775611    1.908790    0.360795
H     -2.937287   -1.136591   -1.366042
H      0.557396    2.293813    0.896107
H     -1.226388    0.359192   -1.575471
H      5.396736   -1.945040   -0.306291
H      5.114972    1.253074   -1.176318
H      0.438069    1.608269   -1.874619
H     -0.254258   -1.446179    0.888939
H      0.395915    0.168978   -1.588339
H     -1.943908   -1.027799   -1.249135
H      2.036464   -1.760564   -0.313297
H     -3.166889    1.377429    0.005940
H      2.020543    2.526629    0.659677
