45

C     -5.402675   -0.378610   -1.136729
C      0.007177    2.629972    1.463718
C     -4.908066   -0.528067    0.277251
C     -3.494269    0.069709    0.317519
C     -2.595623   -0.653478   -0.624105
C     -1.200458   -0.079511   -0.618841
C     -0.638896   -0.193866    0.748306
C      5.167640    0.804254    0.244293
C      1.553500   -1.757966   -0.270506
C      0.911445    1.766694    0.572578
C      0.774169    0.319649    0.914903
C      3.698904   -1.319740   -0.499491
C      5.054602   -1.273449   -0.756365
C      3.052168   -0.263871    0.154242
N      5.651212   -2.376911   -1.423282
N      5.786524   -0.230429   -0.393321
N      3.847985    0.763920    0.496636
N      2.719997   -2.216647   -0.738058
N      1.744344   -0.534640    0.291891
O      0.699650    2.099822   -0.737006
Cl     0.686664    0.000000    0.000000
H     -4.948296    0.536538   -1.562038
H     -5.124181   -1.264890   -1.741342
H     -6.501758   -0.263147   -1.107266
H     -1.040342    2.583324    1.105433
H      0.423606    3.641122    1.476134
H      0.099219    2.202760    2.481933
H     -5.557125    0.029316    0.980845
H     -4.843704   -1.580496    0.597984
H     -3.517779    1.153475    0.132599
H     -3.172076   -0.105266    1.384532
H     -2.489313   -1.703655   -0.227126
H     -3.008073   -0.762542   -1.640496
H     -1.336309    1.007878   -0.907461
H     -0.583386   -0.496972   -1.430544
H     -1.261921    0.479133    1.412333
H     -0.688626   -1.194528    1.180830
H      5.706983    1.682523    0.565904
H      0.598738   -2.239383   -0.307464
H      1.952885    2.088896    0.863858
H      0.974064    0.248590    2.027089
H      5.079469   -3.106326   -1.926949
H      6.668806   -2.482265   -1.424505
H      0.139784    2.899078   -0.838794
H     -0.686664    0.000000    0.000000
