49

C     -3.799545    3.123947   -0.857454
C     -4.015657    2.313932    0.209316
C     -2.979220    2.674464   -1.868114
C     -2.186780   -3.130756    1.054249
C     -3.425602    1.064707    0.274930
C     -2.387238    1.419941   -1.800337
C     -1.715781   -1.821315    1.599775
C     -2.778229   -3.006952   -0.333351
C      2.936966    1.173009    1.291545
C      2.224998   -0.199761   -0.481438
C      4.485700    0.494056   -0.300055
C      0.566830    0.520399    1.313429
C      1.873855    0.470641    0.647469
C     -2.592952    0.567973   -0.716783
C      4.204315    1.186056    0.837363
C      3.522536   -0.217414   -0.994267
C     -1.037976   -1.017495    0.424481
C     -2.023259   -0.818501   -0.666335
C      5.291902    1.938373    1.580357
C      3.902301   -0.985224   -2.217348
F      5.285565    3.224380    1.060531
F      6.483143    1.338641    1.291689
F      5.010109    1.944718    2.936779
F      3.079963   -0.650728   -3.261995
F      3.946795   -2.341972   -1.993145
F      5.208303   -0.587351   -2.576896
N     -3.217911   -1.650788   -0.459305
O     -0.566272    0.130126    0.877030
Cl     0.691960    0.000000    0.000000
H     -4.253511    4.116720   -0.969573
H     -4.655992    2.599040    1.020816
H     -2.809516    3.302784   -2.734440
H     -1.401115   -3.911985    1.002513
H     -3.029674   -3.544368    1.689467
H     -3.615077    0.440340    1.119789
H     -1.749907    1.082144   -2.589059
H     -0.836990   -2.082694    2.268677
H     -2.418050   -1.218799    2.136499
H     -2.046417   -3.349403   -1.075950
H     -3.714837   -3.639167   -0.409998
H      2.663836    1.733036    2.198281
H      1.472330   -0.771416   -1.032382
H      5.493464    0.473740   -0.714423
H      0.818361    0.195922    2.389130
H      0.458510    1.668332    1.541416
H     -0.252429   -1.753658    0.181172
H     -1.569965   -1.043908   -1.660312
H     -3.849882   -1.453766   -1.233743
H     -0.691960    0.000000    0.000000
