50

C     -0.090484   -0.092086    3.003679
C     -1.693406   -3.552388    0.100510
C     -1.688117   -2.985028   -1.296711
C     -3.557263    2.286798   -0.481685
C     -2.094947    2.651017   -0.679801
C     -0.551747   -2.874796    0.833162
C     -1.578196   -1.467157   -1.313379
C      4.388726    0.248764    0.449237
C      5.394270    0.488594   -0.440518
C     -3.492546    0.768760   -0.525298
C     -1.310668    1.433353   -0.163902
C      3.082158    2.084346   -0.305114
C      2.152354    0.731273    1.524481
C      3.236257    0.998364    0.557442
C      5.237546    1.570214   -1.297435
C      4.089077    2.346466   -1.215515
C     -1.016083   -1.474150    1.156452
C     -1.892660   -0.931835    0.048376
C      1.172165   -0.193932    0.909936
Cl     6.514689    1.895160   -2.446312
Cl     3.910297    3.710908   -2.308746
N      0.020462   -0.622591    1.624266
N     -2.253291    0.429365    0.151609
O      1.445376   -0.550997   -0.260347
H      0.051041    0.987767    3.020011
H     -0.992327   -0.458828    3.500261
H      0.782363   -0.572328    3.534649
H     -1.402070   -4.643482    0.063907
H     -2.644946   -3.435285    0.626491
H     -0.820818   -3.441628   -1.849831
H     -2.588529   -3.324085   -1.813787
H     -4.135440    2.725547   -1.292694
H     -3.953736    2.631674    0.490574
H     -1.860200    2.872549   -1.723125
H     -1.910632    3.561260   -0.084235
H     -0.326364   -3.399865    1.791683
H      0.307545   -2.891967    0.137600
H     -2.409508   -1.111298   -1.988378
H     -0.666201   -1.128713   -1.785140
H      4.495863   -0.596268    1.129140
H      6.263751   -0.153195   -0.454271
H     -3.525213    0.479878   -1.585657
H     -4.343522    0.386171    0.053536
H     -0.565261    1.181546   -0.924600
H     -0.870744    1.800062    0.799934
H      2.185821    2.681809   -0.233583
H      1.620893    1.706115    1.744871
H      2.553005    0.342427    2.483411
H     -1.743762   -1.643439    2.035670
H     -2.924977   -1.454848    0.232970
