58

C     -1.292133    2.003806   -0.380409
C      3.172203    0.698402   -0.548600
C     -2.467228   -1.009610    0.303096
C      1.818630    0.820025   -0.284134
C     -1.055453   -1.322755    0.789266
C      3.764342   -0.501669   -0.180862
C     -2.163024   -0.144837   -0.910708
C      1.733003   -1.342998    0.647599
C      1.079344   -0.180193    0.309926
C     -0.372253    0.013037    0.567068
N      3.045547   -1.469208    0.394639
N     -0.965275    0.586703   -0.602695
C     -0.448830   -0.601062   -0.240930
C      0.521469    0.565281   -0.185765
C     -1.841866   -0.148094   -0.019645
C      1.857550    0.041937   -0.509078
O     -0.059273   -1.536540    0.730232
O      0.537336    1.185208    1.034447
O     -2.484334   -0.611273    0.940917
O     -2.406454    0.766275   -0.863427
O      2.092566   -0.567219   -1.576986
O      2.889737    0.225474    0.390504
C     -0.713467    0.505365    0.154879
C      0.623840    0.209914   -0.495580
C     -1.470195   -0.705208    0.504365
C      1.549582   -0.506445    0.385738
O     -1.450812    1.194111   -0.833154
O      1.184369    1.464859   -0.858568
O     -1.126115   -1.506185    1.420921
O     -2.642830   -0.982922   -0.226205
O      1.354025   -1.660337    0.806837
O      2.759335    0.076095    0.830848
H     -0.731196    2.394620    0.503744
H     -2.376414    2.115531   -0.124090
H     -1.129819    2.585476   -1.292376
H      3.747278    1.493703   -1.017987
H     -2.988904   -0.451312    1.091581
H     -2.975604   -1.946068    0.005250
H      1.327369    1.750138   -0.561586
H     -1.060649   -1.646299    1.828472
H     -0.585090   -2.065654    0.102258
H      4.805775   -0.622179   -0.373018
H     -2.991065    0.556459   -1.067953
H     -2.017823   -0.788690   -1.791883
H      1.183564   -2.149153    1.115602
H     -0.505124    0.622723    1.477798
H     -0.344959   -1.037832   -1.263005
H      0.250396    1.289621   -0.984823
H     -0.724018   -2.269778    0.780239
H     -0.363826    1.371658    1.395820
H     -3.332608    1.158586   -0.757620
H      3.857114    0.167756    0.070588
H     -0.551223    1.145133    1.041217
H      0.457956   -0.367125   -1.408289
H     -1.843610    2.015530   -0.469839
H      1.428511    1.491137   -1.802702
H     -3.135156   -1.840107   -0.002431
H      3.575790   -0.533814    0.951964
