31

C      1.181072   -0.411119    0.576514
C      0.061842    0.382209    1.200798
C      2.017292    0.224695   -0.454723
C      2.873529   -0.790756   -1.104170
C     -3.257818    0.405969    0.218008
N      3.044598    1.059301    0.306168
N     -3.714351    1.583068    0.065242
N     -4.260976   -0.685163    0.310518
N     -1.938423    0.059655    0.276586
O      3.127515   -1.968133   -0.682187
O      3.515733   -0.493052   -2.322671
O     -0.787981    0.634063   -0.011877
O      1.388563    0.108302   -0.343225
O     -1.311196    0.640390    0.071147
O     -0.131668   -1.267871    1.307646
O     -0.473217   -1.473744   -1.117401
S     -0.097146   -0.512953   -0.005530
H      1.805549   -0.769108    1.445611
H      0.714065   -1.346751    0.135694
H     -0.539997   -0.071691    1.922619
H      0.471104    1.410174    1.462849
H      1.535836    0.883344   -1.106753
H      3.575356    0.385310    0.936651
H      2.662222    1.861101    0.748116
H     -4.726422    1.776759    0.014985
H     -5.095370   -0.525248    0.877203
H     -3.964731   -1.509005   -0.222653
H     -1.785856   -0.975831    0.660267
H      3.486213   -1.119791   -3.127817
H      1.618855    0.949178    0.084765
H     -0.994191    1.556698    0.002598
