39

C      3.871668    1.822459   -0.090310
C      3.009834    1.945641   -1.159193
C      3.641081    0.925163    0.924127
C      1.892251    1.156402   -1.218296
C     -1.702771   -2.207678   -0.470671
C     -0.586065   -2.653219    0.406778
C     -3.211974   -0.247076   -0.694235
C     -1.059977    1.450324   -0.523020
C      2.266974   -0.862508    1.969641
C     -1.927851   -0.746185   -0.541915
C      2.494392    0.128645    0.844886
C      1.644339    0.256651   -0.217387
C     -0.833920    0.124801   -0.455271
C      0.209107   -1.476593    0.889735
C     -3.445098    1.109801   -0.764045
C     -2.359193    1.955058   -0.677279
C      0.458096   -0.578963   -0.284546
N      1.359570   -1.907737    1.590352
O     -4.749834    1.618800   -0.919025
O     -2.579049    3.323237   -0.746069
Cl     0.684348    0.000000    0.000000
H      4.778712    2.435664   -0.003789
H      3.263129    2.678668   -1.920662
H      4.286002    0.792173    1.780791
H      1.228822    1.272946   -2.087203
H     -2.641419   -2.705739   -0.078490
H     -1.625214   -2.600241   -1.512441
H     -0.931730   -3.297687    1.248463
H      0.130554   -3.247238   -0.239818
H     -4.086681   -0.894090   -0.765131
H     -0.241362    2.127407   -0.452544
H      3.230085   -1.336397    2.250877
H      1.913449   -0.291806    2.850251
H     -0.442695   -0.941817    1.641946
H      0.615099   -1.280762   -1.164024
H      1.152623   -2.472867    2.421070
H     -5.504904    0.947609   -0.976588
H     -3.516050    3.677156   -0.856965
H     -0.684348    0.000000    0.000000
