46

C      6.364265    1.083686    0.220852
C      4.906738   -0.905564    0.957815
C      0.039253   -0.157986   -1.707685
C      2.767499    0.189129   -0.674991
C      4.097831    0.855669   -0.570524
C      1.645669    1.091014   -0.193604
C     -4.274102   -0.229827   -1.769348
C     -3.562288    0.871217   -1.664200
C     -0.391022    0.009117    0.681234
C     -4.122044   -0.653753    0.665475
C     -2.648994    0.709769    2.034897
C      5.059551    0.352745    0.170714
C      0.380443    0.292128   -0.356713
C     -4.461407   -1.219928   -0.686820
C     -2.907552    1.147896   -0.400682
C     -1.631516   -0.768831    0.551535
C     -2.074481   -0.484964    2.721931
C     -2.849512    0.130221    0.631349
O     -3.722490   -2.377710   -0.871391
O     -2.399751    2.300989   -0.249202
O     -1.843408   -0.643909    3.963224
O     -1.798036   -1.479919    1.792447
H      6.875119    1.077929   -0.767325
H      6.116083    2.130392    0.527429
H      7.041834    0.683535    0.989746
H      4.761077   -1.765627    0.268656
H      5.798230   -1.034583    1.601258
H      3.968016   -0.850579    1.580483
H      0.676068   -1.066939   -1.920585
H     -0.989386   -0.447623   -1.877507
H      0.366053    0.579142   -2.498507
H      2.795301   -0.743038   -0.083348
H      2.635018   -0.102295   -1.733904
H      4.238079    1.767448   -1.128420
H      1.562063    2.007084   -0.776575
H      1.792754    1.279141    0.887764
H     -4.782471   -0.467109   -2.714960
H     -3.490319    1.523820   -2.511754
H     -0.040347    0.395811    1.648738
H     -4.936976    0.042650    0.958476
H     -4.057125   -1.433260    1.423188
H     -3.587492    1.047754    2.474332
H     -1.858222    1.480656    2.006698
H     -5.542383   -1.542091   -0.698777
H     -1.652013   -1.487445   -0.254362
H     -4.263607   -3.185962   -0.986220
