31

C     -1.010938   -1.460449    0.047180
C     -0.036465   -0.329269   -0.102465
C     -2.397431   -0.888483   -0.279047
C     -2.747762    0.206938    0.637457
C      3.435811    0.405585    0.335529
N     -2.460832   -0.432059   -1.636302
N      3.930738   -0.661230    0.906583
N      4.241394    1.528018    0.061035
N      2.042679    0.404073   -0.006521
O     -2.750006    0.004885    1.872260
O     -3.071071    1.444191    0.152985
O      1.269945   -0.693293    0.161639
O      1.420525   -0.388354    0.106769
O     -1.297728   -0.366851   -0.484050
O     -0.220137    1.145124    1.345286
O      0.249655    1.600860   -1.036686
S      0.032346    0.506428   -0.006522
H     -0.764464   -2.235817   -0.685828
H     -1.011711   -1.901989    1.049823
H     -0.165517    0.116120   -1.111756
H     -0.309254    0.465175    0.633823
H     -3.135595   -1.716980   -0.140989
H     -2.209940    0.573194   -1.754727
H     -3.350924   -0.673853   -2.121291
H      3.343401   -1.481747    1.107620
H      5.090522    1.422333   -0.510774
H      3.979917    2.451106    0.432318
H      1.675056    1.310599   -0.392799
H     -3.587552    2.142955    0.673127
H      1.308519   -1.350858    0.000173
H     -1.493179   -1.146349    0.075030
