60

C     -4.514085    0.517351   -0.633621
C     -3.028709   -1.105577    0.412773
C      3.442969   -1.898894    0.206340
C      0.013876    0.781790   -1.386429
C     -0.199080    0.275788    0.895354
C      1.340019    0.405268   -1.378985
C      1.135199   -0.109967    0.930714
C     -2.182878    1.132738   -0.298806
C     -3.116261   -0.034527   -0.640209
C      3.339120   -0.458830   -0.172774
C     -0.773523    0.727582   -0.271388
C      1.911488   -0.046315   -0.209740
C      4.051454    0.441173    0.757026
O      4.637550   -0.006032    1.774462
O      4.093867    1.806264    0.533645
C      0.392271   -0.216293   -0.050306
C      1.733659   -0.777446    0.370012
C     -0.736088   -0.943874    0.616948
C      2.870837   -0.028087   -0.316123
C     -2.091722   -0.454290    0.257968
C     -2.351132    0.945616    0.581571
N      2.764426    1.351188    0.081045
N     -2.421870   -0.720838   -1.148430
O     -2.143506    1.408971    1.727303
O     -2.839943    1.837377   -0.357311
O     -0.001712    0.377792   -0.000000
H     -4.771688    0.752358    0.420379
H     -4.547651    1.460014   -1.225240
H     -5.257619   -0.175446   -1.059336
H     -3.481217   -0.755495    1.374879
H     -3.609330   -1.980273    0.098992
H     -1.967790   -1.448353    0.571484
H      3.256600   -2.035468    1.305264
H      2.643597   -2.458884   -0.329257
H      4.444047   -2.303659   -0.046295
H     -0.418352    1.137083   -2.326228
H     -0.745196    0.202986    1.810886
H      1.916642    0.465816   -2.279473
H      1.562413   -0.460357    1.856480
H     -2.515181    1.575498    0.669802
H     -2.312329    1.927941   -1.060528
H     -2.884736   -0.438146   -1.625276
H      3.768433   -0.328179   -1.186586
H      4.768352    2.434755    0.946167
H      0.322721   -0.162107   -1.129101
H      0.367411    0.838816    0.332307
H      1.788694   -1.844380    0.076818
H      1.847328   -0.623280    1.463622
H     -0.636169   -0.950071    1.717710
H     -0.666317   -2.012801    0.300307
H      2.811587   -0.148814   -1.414984
H      3.846489   -0.430929    0.021951
H     -2.823510   -1.094963    0.835549
H      3.487563    1.665762    0.736544
H      2.600799    1.984315   -0.729036
H     -2.141691   -1.728465   -1.319796
H     -3.471399   -0.699971   -1.203430
H     -2.510437    2.804564   -0.420674
H      0.816957   -0.188324    0.000000
H     -0.815244   -0.189468   -0.000000
