130

C     -4.606533    2.290985   -1.085165
C     -4.713640   -3.206065   -0.280993
C      6.569593   -1.208314    0.786279
C     -4.129625    0.888382   -0.665168
C     -4.571806   -2.786207    1.142987
C     -2.948474    0.477560   -1.475065
C     -3.220595   -2.533439    1.666240
C      0.315922   -0.142895   -0.425301
C      0.043893    0.741825    0.761893
C      2.987866    2.000075    1.554688
C      2.667709    1.678131   -0.772789
C      4.339329    1.856553    1.372497
C      4.025167    1.538201   -0.927923
C     -2.367325   -0.872661   -1.240408
C     -2.357190   -1.477321    1.177921
C     -0.382920   -1.473834   -0.165145
C      2.152600    1.910765    0.480652
C      4.894319    1.623118    0.133469
C      0.676924    2.081399    0.620984
N      6.273103    1.484303   -0.085744
N     -1.827974   -1.248594   -0.037664
O      0.212581    2.813699   -0.437278
O      7.054480    0.887367    2.385058
O      8.624586    0.557945    0.505602
S      7.192911    0.456237    0.945000
C     -4.194627   -2.802376   -2.038402
C     -5.856127    1.885797    1.026353
C      7.245439   -2.499013   -0.943163
C     -4.217896   -1.431598   -1.443848
C     -4.919412    1.062216    1.867146
C     -3.135356   -0.604112   -2.136499
C     -3.575725    1.824464    1.933142
C     -0.926535    0.377886    1.303812
C      0.533884   -0.010223    1.398531
C      3.234676   -0.462077    1.737796
C      3.834173    1.008129   -0.005681
C      4.578336   -0.843276    1.865451
C      5.169633    0.628722    0.121706
C     -3.161003    0.752619   -1.544473
C     -3.109937    1.938730    0.519796
C     -1.442063    0.359694   -0.084626
C      2.853558    0.467476    0.799993
C      5.548277   -0.297984    1.057144
C      1.413405    0.907704    0.636041
N      6.900289   -0.724288    1.232618
N     -2.913441    0.631415   -0.074398
O      1.113463    0.862924   -0.730516
O      8.193077    0.035554   -0.977797
O      9.279373   -1.521871    0.507543
S      7.936583   -1.120500   -0.053156
C     -0.357545    0.496587   -0.109449
C      0.352100   -0.614676   -0.038159
C     -1.794062    0.518840    0.081939
C      1.800194   -0.573017   -0.240747
O     -2.416885    1.605488    0.002570
O     -2.544225   -0.612560    0.354192
O      2.518494   -1.591885   -0.184592
O      2.420054    0.639401   -0.507483
H     -4.311858    2.527878   -2.112985
H     -4.190238    3.069062   -0.428813
H     -5.710546    2.349515   -1.016083
H     -5.097987   -2.386041   -0.926560
H     -3.744490   -3.546464   -0.670847
H     -5.410981   -4.077670   -0.405524
H      5.526543   -1.139056    0.432956
H      6.690718   -1.765509    1.720277
H      7.173006   -1.672633   -0.030247
H     -3.944674    0.988501    0.408771
H     -4.979447    0.203653   -0.909619
H     -5.121501   -3.582696    1.747921
H     -5.246972   -1.894983    1.285584
H     -3.291787    0.542652   -2.560553
H     -2.155048    1.287451   -1.445656
H     -3.371746   -2.313407    2.788733
H     -2.705458   -3.543567    1.751271
H      1.416649   -0.389199   -0.380745
H      0.029308    0.297035   -1.374527
H     -1.061513    0.927943    0.886537
H      0.325633    0.229856    1.721957
H      2.552516    2.186111    2.545188
H      2.006412    1.605339   -1.642411
H      4.981318    1.934882    2.257840
H      4.381090    1.354475   -1.946799
H     -1.480790   -0.907947   -2.017809
H     -3.056991   -1.590136   -1.772458
H     -2.811946   -0.499340    1.587959
H     -1.436909   -1.508787    1.935043
H     -0.250406   -2.168339   -1.014797
H      0.075791   -1.899499    0.720408
H      0.499261    2.705512    1.545957
H      6.693225    2.022230   -0.882146
H      0.124915    2.315967   -1.282715
H     -3.877750   -2.731638   -3.085303
H     -5.226272   -3.218304   -1.973503
H     -3.468999   -3.421763   -1.486276
H     -5.911113    1.506312   -0.019279
H     -6.895750    1.824748    1.466580
H     -5.616701    2.970281    1.035913
H      7.499552   -2.435766   -2.023372
H      6.163437   -2.546140   -0.756554
H      7.719645   -3.425977   -0.511226
H     -4.007848   -1.429429   -0.366627
H     -5.174280   -0.890016   -1.604904
H     -4.711530    0.088542    1.382118
H     -5.294389    0.908800    2.898094
H     -3.383400   -0.559277   -3.237729
H     -2.196403   -1.148780   -2.067922
H     -2.940361    1.344754    2.664103
H     -3.877787    2.834795    2.343630
H     -1.481262   -0.312918    1.932977
H     -0.987586    1.410890    1.759204
H      0.761269    0.060270    2.508542
H      0.638495   -1.068658    1.074368
H      2.497442   -0.913103    2.388530
H      3.530549    1.743994   -0.747315
H      4.803865   -1.587672    2.634003
H      5.926743    1.056907   -0.511408
H     -4.153939    1.223379   -1.619008
H     -2.436819    1.460205   -1.989543
H     -3.858454    2.455738   -0.124289
H     -2.191995    2.558886    0.447381
H     -1.271040   -0.632364   -0.505990
H     -1.052397    1.193551   -0.719067
H      1.313771    1.944526    0.995152
H      7.234285   -0.783337    2.212915
H      1.544980    0.092553   -1.178547
H      0.181350    1.399544   -0.318617
H     -0.187368   -1.524318    0.172086
H     -3.343208   -0.595469    0.992962
H      3.371100    0.852064   -0.204703
