85

C     -2.726208   -2.739263    0.706651
C     -3.531095    2.183214    0.622012
C      4.508285   -3.108110   -1.402305
C     -4.636167   -0.561950   -1.241006
C      4.545367    0.478436   -2.039231
C      3.978258    1.613200   -1.510189
C      3.375063   -0.767392   -0.357227
C     -1.064449   -1.065258    1.509277
C     -0.998242    2.647172    1.734891
C     -2.302191   -1.336461    0.963208
C     -2.643044    1.034302    0.942556
C      4.221502   -0.729918   -1.431675
C      3.123857    1.582896   -0.426871
C      2.823011    0.379119    0.150882
C     -1.415217    1.255596    1.481718
C     -3.110050   -0.256014    0.673502
C      1.741563    1.971000    1.253777
N     -0.638349    0.192344    1.759025
N      2.451206    2.528812    0.266411
N      1.974910    0.662329    1.174702
O      0.652808    1.713360    3.608637
O      4.805069   -1.869247   -1.980737
O     -4.360425   -0.484802    0.124255
S      0.672408    2.732955    2.456701
C     -6.441968    1.418450   -0.822301
C     -2.784308   -1.876109   -0.512721
C      8.465647    0.458362   -0.989613
C     -5.800858   -1.739338    0.477191
C      6.140381   -0.431152    0.780422
C      5.028223   -0.755000    1.530447
C      4.782217    0.815729   -0.638420
C     -4.068809    2.167089   -0.409320
C     -0.873371    0.271436   -0.384362
C     -4.979678    1.118966   -0.604359
C     -3.181226   -0.476135   -0.530469
C      6.067923    0.350643   -0.315534
C      3.740914   -0.311670    1.242432
C      3.676973    0.506463    0.099491
C     -2.289000    0.573067   -0.339646
C     -4.517913   -0.153651   -0.655948
C      1.666385    0.331631    1.026317
N     -2.758576    1.812675   -0.294096
N      2.516791   -0.378636    1.744068
N      2.393461    0.877820    0.010275
O     -0.505509   -0.714040    2.004648
O      7.135655    0.734569   -1.113007
O     -5.432538   -1.224130   -0.844106
S     -0.096193    0.678376    1.284195
Sr     0.000000    0.000000    0.000000
H     -2.006671   -3.424435    1.168626
H     -2.857661   -2.904218   -0.365969
H     -3.721724   -2.949000    1.191976
H     -4.580292    1.873584    0.590854
H     -3.422161    2.987878    1.352152
H     -3.265466    2.608421   -0.389962
H      5.071833   -3.225892   -0.437193
H      4.816615   -3.898802   -2.118625
H      3.416764   -3.208981   -1.257397
H     -4.220572   -1.454603   -1.707920
H     -4.324594    0.367763   -1.776931
H     -5.741543   -0.613313   -1.362824
H      5.226089    0.502414   -2.902314
H      4.203083    2.577021   -1.952506
H      3.136238   -1.707366    0.098832
H     -0.416243   -1.916589    1.742563
H     -1.680566    3.067430    2.509841
H     -1.081000    3.262369    0.835562
H     -6.727110    2.414384   -0.475488
H     -7.045689    0.580771   -0.414250
H     -6.580392    1.294585   -1.964454
H     -3.171620   -2.371715    0.452683
H     -3.290921   -2.442943   -1.305954
H     -1.716687   -2.094431   -0.603931
H      9.074608    1.425329   -0.834663
H      8.676444   -0.239877   -0.156626
H      8.850343   -0.036208   -1.928044
H     -5.111099   -1.301458    1.260488
H     -5.706221   -2.829920    0.527390
H     -6.813431   -1.379934    0.787550
H      7.136949   -0.791381    1.069080
H      5.099905   -1.402474    2.410311
H      4.698310    1.447466   -1.510520
H     -4.420988    3.182555   -0.369597
H     -0.514049   -0.621788   -0.819107
H     -0.322972    1.111625   -1.016448
