55

C     -6.590329   -1.848275    1.902977
C     -5.792335    2.692735   -1.173899
C      7.406544   -0.214046    0.053399
C      6.585351   -0.552178   -1.003861
C      7.132530   -0.006168    1.408305
C      5.203300   -0.459871   -1.001101
C      5.902760   -0.165688    1.991189
C     -2.880434   -1.200028   -0.113943
C     -4.066731   -1.449684    0.556449
C      1.142256    1.024114    1.036374
C      0.885979   -1.022378   -0.055434
C      2.372822    1.308579    0.259749
C      2.083221   -0.807403   -0.961058
C     -3.752015    0.820334   -0.944549
C     -0.400744    0.909634   -0.762374
C     -2.687278   -0.072484   -0.875681
C      4.319672   -0.260361    0.048532
C      4.669768   -0.369241    1.374421
C     -1.397531    0.160281   -1.579376
C     -5.084579   -0.553795    0.465155
C     -4.939444    0.592926   -0.286996
N      0.228999    0.200669    0.290712
N      2.981613    0.077196   -0.198682
O      3.749726   -0.701763    2.159781
O     -0.903855   -0.951610   -2.226730
O     -6.313513   -0.719827    1.104057
O     -5.963001    1.531181   -0.401258
Cl     0.690459    0.000000    0.000000
H     -6.456711   -2.762577    1.298593
H     -5.887244   -1.876493    2.762423
H     -7.650825   -1.786583    2.213288
H     -5.617844    2.414758   -2.242949
H     -4.938637    3.311546   -0.819606
H     -6.723498    3.294438   -1.073445
H      8.458297   -0.078232   -0.176036
H      7.061632   -0.917205   -1.902409
H      7.935852    0.301261    2.049972
H      4.710787   -0.554272   -1.954102
H      5.905124   -0.126158    3.065808
H     -2.095664   -1.932254   -0.019184
H     -4.206940   -2.344007    1.155050
H      0.642326    2.023914    1.219877
H      1.309333    0.523923    2.013578
H      0.254832   -1.824845   -0.419800
H      1.331847   -1.408982    0.910659
H      3.097098    1.964523    0.782118
H      2.082182    1.869519   -0.657878
H      2.541039   -1.786686   -1.134395
H      1.768267   -0.271998   -1.862030
H     -3.608321    1.721920   -1.548679
H     -0.967865    1.760590   -0.282481
H      0.289353    1.412517   -1.476578
H     -1.677886    0.874688   -2.420203
H     -1.449290   -1.766158   -2.110456
H     -0.690459    0.000000    0.000000
