40

C      3.192691    4.227205   -0.723659
C     -2.546373    0.201103    0.501199
C      2.710944    3.274493   -0.208962
C     -1.089888   -2.727594   -0.978903
C      0.137980   -1.886427   -0.812227
C     -2.201764   -2.022245   -0.212232
C      1.139597    1.356966   -0.218001
C      2.508683    1.677677    1.613598
C      1.018110   -0.116912    1.628873
C      2.132279    2.102805    0.397662
C      0.539985    0.257422    0.306594
C     -0.451721   -0.534694   -0.372764
N      1.953709    0.577639    2.219998
N     -1.599325   -0.890400    0.449195
C     -0.511804    1.182128   -0.160109
C      0.749667    1.035709    0.095784
C     -1.482984    0.131883   -0.285009
C      1.425752   -0.199892    0.304685
O     -2.700388    0.450191   -0.542913
O     -1.208473   -1.201064   -0.148674
O      2.698676   -0.079732    0.546265
O      1.015922   -1.489325    0.304479
H      3.635013    5.134723   -1.206478
H     -3.185558    0.021377    1.413259
H     -3.175712    0.167720   -0.406461
H     -2.073379    1.183808    0.628863
H     -1.378053   -2.766115   -2.054873
H     -0.926448   -3.747119   -0.566458
H      0.733479   -1.791115   -1.705675
H      0.767385   -2.241076    0.037207
H     -2.659041   -2.703177    0.540583
H     -2.995019   -1.708416   -0.918853
H      0.832855    1.749513   -1.220265
H      3.274158    2.200222    2.200076
H      0.546333   -0.980285    2.035794
H     -0.840919   -0.017100   -1.267601
H     -0.935121    2.213651   -0.306885
H      1.314585    1.989031    0.147228
H     -1.869759   -1.848947    0.298213
H      1.503929   -2.183633   -0.253066
