40

C      2.578919    1.659659   -1.369706
C     -0.012817   -2.303198   -1.202702
C     -2.132968    1.034332   -1.428169
C      1.590901   -0.150641    0.160207
C      0.378289    0.258942   -0.253279
C      3.957339    0.166516   -0.005068
C     -2.329237   -2.140278   -0.489055
C     -3.335778   -0.007715    0.424973
C     -1.829318    1.856617    0.841749
C      2.745443    0.516283   -0.366418
C     -1.120689   -1.616488   -0.485307
C     -3.393398   -1.459744    0.212956
C      4.253910   -0.886604    0.925736
C     -2.018694    0.598306    0.013816
C     -0.876488   -0.359589    0.226523
O     -0.704396    2.566268    0.499931
O     -4.378959   -2.089005    0.651610
O      3.474986   -1.623430    1.530710
O      5.634248   -1.122782    1.196111
O     -0.793353   -0.624090    1.594311
H      1.994280    1.208162   -2.199953
H      2.019728    2.460661   -0.837393
H      3.562406    2.012165   -1.665652
H      0.679087   -2.821241   -0.499737
H     -0.379250   -3.040844   -1.931084
H      0.528900   -1.518751   -1.779847
H     -1.868950    0.211934   -2.121046
H     -3.206553    1.347348   -1.577580
H     -1.503071    1.910060   -1.640730
H      1.555341   -0.953968    0.858059
H      0.338797    1.067817   -0.959505
H      4.795230    0.729673   -0.456068
H     -2.508187   -3.062114   -1.011163
H     -3.564941    0.186938    1.506521
H     -4.144176    0.461688   -0.174416
H     -2.759449    2.471376    0.673844
H     -1.850584    1.568603    1.931271
H     -0.922810    3.251748   -0.190268
H      5.916900   -1.890021    1.797575
H     -0.370640    0.125409    2.084946
