55

C      8.220034    1.222395   -0.599202
C     -5.808433   -0.560212    1.507567
C     -4.818712    1.295539    2.469075
C     -5.848548    1.582081    0.439830
C      6.739211    1.017781   -0.305614
C      6.263732   -0.127500   -1.132527
C      4.786051   -0.360780   -0.871642
C      4.502603   -0.689986    0.562355
C      3.029654   -0.953194    0.730422
C      2.169631    0.202861    0.390371
C      0.721171   -0.162875    0.604837
C      0.287127   -1.288370   -0.289182
C     -4.218358   -1.016315   -1.432880
C     -3.767412    0.398399    0.624709
C     -3.512798   -0.882709   -0.129922
C     -3.854171   -0.004474   -2.449618
C     -1.152157   -1.543379    0.052540
N     -5.043017    0.619468    1.162909
O     -3.090907   -0.287675   -3.392597
O     -4.365145    1.267523   -2.354549
O     -1.517977   -2.503256    0.778976
O     -2.093793   -0.706737   -0.432777
H      8.326910    2.172088   -1.165986
H      8.784800    1.209267    0.335106
H      8.604008    0.414363   -1.248499
H     -6.692382   -0.571068    0.801384
H     -6.284114   -0.492999    2.524444
H     -5.255303   -1.496406    1.500241
H     -3.960715    0.814875    2.952755
H     -4.528850    2.345999    2.194767
H     -5.733977    1.332550    3.057935
H     -5.222605    2.416777    0.126671
H     -6.442276    1.119068   -0.370794
H     -6.614589    1.992315    1.161855
H      6.161470    1.946726   -0.481893
H      6.623053    0.797959    0.779296
H      6.814142   -1.062939   -0.859263
H      6.373585    0.085715   -2.205574
H      4.202829    0.560767   -1.132586
H      4.378750   -1.188700   -1.492924
H      4.776516    0.144355    1.248761
H      5.110413   -1.600146    0.810619
H      2.772005   -1.898959    0.204375
H      2.910049   -1.217505    1.826551
H      2.439855    1.044837    1.065403
H      2.307202    0.580067   -0.653156
H      0.059190    0.728523    0.466257
H      0.625157   -0.477097    1.684722
H      0.881047   -2.192275   -0.248885
H      0.348599   -0.903244   -1.335211
H     -5.326588   -0.941046   -1.341334
H     -4.051892   -2.066568   -1.806469
H     -3.507851    1.234020   -0.075568
H     -2.957502    0.438515    1.414737
H     -3.548719   -1.788419    0.482744
