123

C    -10.547609    1.905604    0.075277
C    -10.242119    0.111142   -2.025937
C     -7.679245   -0.560780    3.997202
C     -5.394502    2.379038   -1.896374
C     -3.908636    0.883388   -3.052314
C      2.960374    0.823670   -0.467164
C      5.205619    0.073734    1.784459
C      0.448806    0.795498    1.295963
C     -1.129545   -2.530696    0.363479
C     -9.186355    1.394801   -0.288335
C     -0.867215    0.063437   -1.210934
C      0.393609   -0.669264   -1.518456
C      2.568487   -1.027475    2.238702
C      4.632487   -1.281474   -1.560939
C      3.174942   -1.375178   -1.451256
C      1.073627   -1.384379    2.141296
C     -3.343638    1.605602   -0.744463
C     -1.835444   -1.015512    2.084153
C      5.202202   -2.336663    1.807208
C     -4.722119    0.671130    1.856718
C     -9.028371    0.542023   -1.284232
C     -6.630640    0.307576    3.374757
C     -1.594520   -0.104628   -0.107935
C     -2.834814    0.609209    0.216999
C      3.231317   -1.262635    0.940766
C      1.146736   -0.957814   -0.284812
C     -3.284599   -1.269806    1.760747
C      5.437213   -1.133403   -0.309355
C      8.747497    1.739927    0.107616
C      8.545130    2.093914   -1.362438
C      8.493043    0.255903    0.304322
C      8.945981    0.854228   -2.137575
C     -4.796599   -0.840445   -0.129099
C     -5.243489   -0.009463   -1.258105
C      9.285986    1.195895   -3.549709
C     -7.691804    0.031828   -1.653334
C      7.590262   -0.306812   -0.736062
C     -4.456744    1.179174   -1.641066
C      2.598878   -0.580466   -0.257122
C      4.723220   -1.114515    0.985788
C      0.426029   -0.665777    1.011089
C     -1.012898   -1.127455    0.859592
C     -3.911619   -0.211279    0.884657
O      6.611939   -2.271187    1.883508
O     -6.589019    1.533388    3.726683
O     -3.930636   -1.303505    3.028684
O      7.981924    2.536593    0.945438
O      9.209542    3.229030   -1.750709
O      9.709558   -0.411682    0.409416
O     -4.185504   -2.013379   -0.586361
O      8.669458    0.643759   -4.473036
O     10.280664    2.120131   -3.808720
O     -7.573095   -0.769313   -2.593576
O     -5.713273   -0.115155    2.456207
O      6.244904   -0.015539   -0.514378
O      7.944668   -0.070294   -2.050095
O     -6.582511    0.435793   -0.967276
H    -10.509125    2.516784    0.996245
H    -10.954674    2.557135   -0.716745
H    -11.255542    1.057613    0.217802
H     -9.982218   -0.416401   -2.964477
H    -10.888674   -0.500033   -1.375292
H    -10.792160    1.050807   -2.280091
H     -7.229515   -0.911560    4.966279
H     -7.868814   -1.455933    3.403228
H     -8.569187    0.027015    4.264687
H     -5.480031    2.974669   -0.939433
H     -5.003642    3.065477   -2.640686
H     -6.404237    2.069199   -2.146671
H     -3.073964    1.579849   -3.266574
H     -3.544351   -0.143325   -3.139831
H     -4.690012    1.092712   -3.813261
H      3.678385    0.960172   -1.339403
H      3.514115    1.328224    0.360284
H      2.131177    1.506113   -0.743208
H      5.723885    0.826824    1.118003
H      4.457763    0.559384    2.414164
H      6.022760   -0.214714    2.514986
H     -0.094861    1.036717    2.268602
H      1.464750    1.173826    1.525375
H      0.087247    1.451146    0.485627
H     -1.520222   -2.556442   -0.667844
H     -1.865640   -3.165905    0.952369
H     -0.213234   -3.156292    0.459058
H     -8.358805    1.743311    0.282660
H     -1.283234    0.805039   -1.891295
H      0.929293   -0.029914   -2.253721
H      0.107247   -1.574855   -2.086145
H      2.961386   -1.794042    2.960820
H      2.576143   -0.025075    2.654693
H      4.963829   -2.201795   -2.134240
H      4.862023   -0.463412   -2.310062
H      2.859084   -2.435591   -1.256719
H      2.692689   -1.063425   -2.387435
H      0.622247   -1.035313    3.090961
H      0.996487   -2.467949    2.120109
H     -3.789786    2.477100   -0.146089
H     -2.598735    2.157241   -1.341673
H     -1.788663   -0.041317    2.602223
H     -1.532054   -1.788141    2.825028
H      4.866204   -3.279211    1.345552
H      4.872102   -2.266202    2.860493
H     -4.053042    1.028859    2.682582
H     -5.088684    1.591700    1.361998
H     -2.502588    1.236371    1.130866
H      3.053523   -2.367703    0.726194
H      1.217237   -2.104272   -0.265602
H     -3.514015   -2.244521    1.317188
H      6.167944   -2.002049   -0.323914
H      9.809326    1.926837    0.334672
H      7.458077    2.250592   -1.509793
H      8.017833    0.167534    1.299468
H      9.913605    0.503207   -1.679453
H     -5.697596   -1.224356    0.447764
H     -5.404309   -0.721767   -2.128810
H      7.664566   -1.437528   -0.641539
H      6.956167   -3.159673    1.589066
H     -4.562620   -2.043126    3.093221
H      7.082743    2.734423    0.622193
H      8.567486    4.004711   -1.798604
H     10.184001   -0.232221    1.235067
H     -4.730635   -2.357885   -1.350006
H     10.796006    2.141918   -4.680760
