29

C      2.181231    1.432643   -0.839287
C     -1.425568    1.133133    1.068785
C     -2.561282   -0.005286   -0.813887
C     -0.154134   -1.192648   -1.111340
C      0.429152   -1.192298    1.273031
C      1.079582    0.730903   -0.066944
C     -0.721348   -1.204267    0.316732
C     -0.067298    0.326456   -0.930373
C      1.608014   -0.386144    0.786132
C     -1.278618    0.137075   -0.005736
O      2.573540   -1.152546    0.162674
H      2.902164    1.817994   -0.065044
H      1.714493    2.351184   -1.269676
H      2.676773    0.797740   -1.570967
H     -1.246623    2.168859    0.659000
H     -0.845207    0.978330    1.973332
H     -2.510288    1.155820    1.380512
H     -2.857037   -1.062616   -0.939353
H     -2.383765    0.411890   -1.808202
H     -3.407460    0.514107   -0.283791
H      0.788093   -1.705721   -1.241433
H     -0.969354   -1.403441   -1.834962
H      0.706317   -2.251995    1.471622
H      0.134709   -0.785024    2.284531
H      0.687297    1.512223    0.649981
H     -1.429322   -2.011109    0.518139
H     -0.252199    0.915038   -1.822215
H      2.118516    0.096672    1.671200
H      2.509623   -2.126970    0.387538
