21

C     -1.656524   -1.318876   -0.684103
C     -0.919731   -0.039423   -1.087752
C     -0.582307    1.002538   -0.127398
C      0.842898    0.965165    0.488716
C      1.253144   -0.534950    0.739503
C      0.163416   -1.211415    0.227596
O     -1.539942    1.379722    0.803532
O      1.776840    1.564050   -0.304272
O      2.462821   -0.760230    0.050665
O     -0.587600   -2.179396   -0.190609
O      0.309528   -0.731928   -1.119589
H     -2.153144   -1.755797   -1.520572
H     -2.258613   -1.061235    0.192431
H     -1.236254    0.281667   -2.095562
H     -0.500045    1.947506   -0.767622
H      0.735808    1.456064    1.475531
H      1.450532   -0.662853    1.821852
H     -0.633483   -0.726628    0.883380
H     -2.293606    1.795835    0.357668
H      2.416216    2.054193    0.304606
H      2.950046   -1.464010    0.552000
