95

C      3.181982    1.771098   -2.060257
C      3.522037    1.340165   -0.888085
C     -3.898639    1.505083   -1.834534
C     -4.892876    1.952060   -1.002805
C     -2.878957    0.675115   -1.352084
C     -4.902349    1.581787    0.351051
C     -1.864405   -0.782157    1.751088
C      2.617968   -0.925032    1.886725
C     -2.893788   -0.313187    2.587125
C      2.509572   -2.114102    0.925800
C      0.975886    0.396700    0.589204
C      2.381232   -0.899050   -1.053128
C      3.211849    0.030981   -0.260243
C      2.411746    0.303159    1.040556
C     -2.879908    0.311350   -0.028849
C     -1.821577   -0.483614    0.406760
C     -3.892931    0.768889    0.814455
C      0.499516   -1.039560    0.472517
C     -0.778512   -1.076783   -0.391546
N     -3.867137    0.436604    2.116353
N      1.597664   -1.776848   -0.174819
O     -0.411719   -0.664266   -1.580941
C      4.830217   -0.585358   -2.002693
C      3.665721   -0.058470   -1.693742
C     -4.330970    0.064931   -2.241890
C     -5.365527   -0.641297   -1.670681
C     -3.164674    0.271523   -1.547972
C     -5.224931   -1.140669   -0.396876
C     -1.733807   -0.529991    1.719530
C      2.805710    0.700183    1.854107
C     -2.788126   -1.226575    2.249512
C      1.957113   -0.565222    1.910283
C      1.524279    1.601917   -0.041143
C      1.792955   -0.992157   -0.362628
C      3.098762   -0.240598   -0.359253
C      2.865389    1.070710    0.369275
C     -3.033372   -0.233580   -0.271357
C     -1.841663   -0.024243    0.450996
C     -4.045637   -0.941974    0.327955
C      0.469602    0.727364    0.645441
C     -0.797133    0.734647   -0.237175
N     -3.933215   -1.440304    1.581935
N      1.016824   -0.561598    0.814866
O     -1.100196    2.122633   -0.258541
O      1.483972   -0.130150   -0.572263
O     -1.022881   -1.075040   -0.145466
O     -0.541221    1.432172   -0.801890
O     -0.004880    0.698887    1.443717
S     -0.014656    0.278690    0.011999
H      3.497400    2.783242   -2.372763
H      2.616250    1.196208   -2.756302
H      4.130457    2.018051   -0.259518
H     -3.826328    1.745450   -2.890327
H     -5.663056    2.597718   -1.397434
H     -2.130778    0.335905   -1.991068
H     -5.669097    1.938765    1.001935
H     -1.167997   -1.396859    2.302759
H      1.923993   -0.988452    2.732467
H      3.695707   -0.907477    2.217791
H     -2.909300   -0.570615    3.653603
H      3.489269   -2.446723    0.583670
H      2.038314   -2.924329    1.512003
H      0.957455    0.859346   -0.426241
H      0.348281    1.006427    1.236209
H      1.810520   -0.407915   -1.833475
H      3.065498   -1.614067   -1.598737
H      4.163365   -0.454536    0.006658
H      2.773116    1.244722    1.501043
H      0.329298   -1.502035    1.424995
H     -1.000625   -2.169593   -0.442873
H     -0.398399   -1.341624   -2.318270
H      5.395183   -1.164516   -1.279476
H      5.298934   -0.478798   -2.986348
H      3.132452    0.509866   -2.435084
H     -4.398699    0.474213   -3.239084
H     -6.300168   -0.822680   -2.191790
H     -2.328780    0.822810   -1.950996
H     -6.000116   -1.698430    0.096549
H     -0.845466   -0.372263    2.280531
H      2.379971    1.518945    2.455434
H      3.829627    0.494680    2.225723
H     -2.712067   -1.635839    3.263729
H      1.417146   -0.503707    2.874908
H      2.625599   -1.457992    1.879049
H      1.383861    1.531759   -1.153916
H      1.370227    2.668885    0.205289
H      1.214991   -0.829390   -1.292500
H      1.988042   -2.068647   -0.274084
H      3.801699   -0.857045    0.276138
H      3.689179    1.790745    0.193596
H      0.176555    1.237074    1.581111
H     -0.544456    0.361752   -1.247468
H     -1.241037    2.366709    0.703915
H      2.055232   -0.492532    0.132848
H     -1.955566   -0.712028   -0.068944
