60

C      2.901181   -1.367057   -1.098901
C     -2.548245   -2.021063    1.011767
C     -1.109998   -1.814907    1.398296
C     -3.518150    2.039490    0.833402
C     -0.126056    0.940305   -1.031845
C      2.784505   -0.016937    1.651465
C      1.001069    0.100745   -1.569870
C     -2.906659    1.523371   -0.427150
C      1.406911   -0.602145    1.883448
C      5.074043    0.919812    0.351057
C     -4.132316   -0.201626    1.399070
C      4.190436    1.520234   -1.630916
C     -2.618988   -0.611049   -1.651616
C      3.924687    1.009327   -0.286604
C     -3.085891   -0.636370    0.709661
C     -4.716742    1.161009    1.153196
C      2.587103    0.649995    0.284325
C     -0.915667    0.176793   -0.004849
C     -0.383255   -1.210597    0.218659
C      6.140624    1.357371   -0.515798
C      1.909843   -0.432748   -0.489378
C     -2.387252    0.113678   -0.339747
C      1.090793   -1.212621    0.542145
O     -3.990732   -0.622433   -1.894135
O     -5.651486    1.148909    0.132813
O      7.392543    1.419075   -0.268294
O      1.476373   -2.552690    0.605853
O      5.568796    1.713905   -1.705794
H      2.727806   -2.441186   -0.829194
H      2.793665   -1.340320   -2.201846
H      3.954728   -1.078978   -0.852761
H     -3.068478   -2.456551    1.883476
H     -2.633196   -2.703003    0.166915
H     -0.620553   -2.746120    1.749285
H     -1.048056   -1.063263    2.227497
H     -2.806800    1.932698    1.667304
H     -3.774476    3.090934    0.697666
H      0.309560    1.883796   -0.643725
H     -0.746644    1.236041   -1.908704
H      3.068621    0.730044    2.414834
H      3.507240   -0.829600    1.530220
H      1.583466    0.692468   -2.272817
H      0.604931   -0.798921   -2.117334
H     -3.589297    1.667205   -1.294082
H     -2.035483    2.211175   -0.648310
H      1.422102   -1.364626    2.695816
H      0.741892    0.244148    2.129842
H      5.189582    0.570231    1.369359
H     -4.584304   -0.826067    2.154447
H      3.965170    0.735042   -2.423375
H      3.611311    2.446692   -1.864512
H     -2.116405   -0.153823   -2.502097
H     -2.307902   -1.653187   -1.538745
H     -5.122414    1.527413    2.119762
H      2.009713    1.559946    0.432350
H     -0.843227    0.725691    0.956252
H     -0.513819   -1.893161   -0.628746
H     -4.485936   -1.199668   -1.274526
H     -5.492025    1.933582   -0.457468
H      0.941757   -3.130408    0.002955
