42

C      3.772267   -1.450961   -0.796507
C     -1.523779    0.216647    1.823274
C     -2.834384   -2.782046   -1.685994
C      3.487529   -1.199699    0.676152
C      0.068351    4.339559    0.127542
C      1.212622    3.620116    0.334849
C     -1.079679    3.642672   -0.174256
C      1.230389    2.221054    0.245043
C     -1.051457    2.254088   -0.260325
C     -0.435709   -0.247774   -1.664599
C     -0.696471   -1.713259   -1.809995
C     -2.152326   -1.157421   -0.064957
C     -0.960592   -0.634955    0.700013
C      0.098345    1.512897   -0.054324
C      2.135801   -0.633128    0.873583
C     -0.003424    0.038099   -0.196337
N     -1.722920   -2.208121   -0.944234
O      1.742156   -0.268052    1.996146
O      1.291429   -0.497993   -0.177932
H      2.828010   -1.356725   -1.392880
H      4.471372   -0.713066   -1.222285
H      4.178963   -2.456519   -0.981178
H     -1.808788   -0.528212    2.637052
H     -0.826327    0.938669    2.238816
H     -2.455060    0.746353    1.547019
H     -2.632049   -3.856217   -1.811233
H     -3.740931   -2.690962   -1.076746
H     -2.995014   -2.250040   -2.648906
H      4.286912   -0.539191    1.044204
H      3.561419   -2.173032    1.191653
H      0.005622    5.425733    0.182393
H      2.117823    4.143865    0.573743
H     -2.006760    4.188388   -0.340086
H      2.176816    1.729651    0.396178
H     -1.966703    1.784616   -0.511386
H      0.390629    0.029902   -2.345516
H     -1.322695    0.299691   -1.926443
H      0.242000   -2.278762   -1.667263
H     -0.983766   -1.860127   -2.896508
H     -2.778966   -0.407014   -0.528849
H     -2.800611   -1.636859    0.726296
H     -0.520045   -1.591866    1.154163
