44

C      3.928883    1.142320    1.301949
C     -5.788296   -1.137601   -0.612131
C     -5.495678   -1.450288    0.706970
C     -4.962039   -0.343570   -1.364352
C     -4.323580   -0.921725    1.235890
C     -3.813652    0.155799   -0.796739
C      2.087523    0.995363   -0.710050
C      2.135078   -1.077275    0.710772
C     -2.347748    1.902312    1.228707
C     -3.474316   -0.124563    0.513395
C      1.319835   -0.168859   -0.151198
C     -2.248883    0.392265    1.161915
C      3.524237    0.664601   -1.013214
C      3.593477   -1.070678    0.408314
C      3.662194   -0.551509   -1.881954
C      3.804063   -1.724506   -0.936822
C     -1.093697   -0.045421    0.340089
N      4.150066    0.233893    0.220511
O     -3.504265    2.177504    1.994592
O     -1.229178   -0.731607   -0.706360
O      0.227330    0.267432    0.660672
O      4.847156   -1.282072   -1.751533
H      2.971637    1.015272    1.822953
H      4.023373    2.198245    0.914079
H      4.749544    1.054672    2.058771
H     -6.684931   -1.510675   -1.100208
H     -6.159908   -2.079033    1.286108
H     -5.201207   -0.109143   -2.386058
H     -4.111680   -1.180437    2.277326
H     -3.116252    0.793040   -1.343639
H      2.101066    1.878692   -0.025803
H      1.629384    1.353062   -1.655810
H      1.779870   -2.139756    0.634217
H      2.024536   -0.829633    1.806920
H     -1.502868    2.300281    1.830474
H     -2.424831    2.351801    0.236227
H      0.951447   -0.761033   -1.023022
H     -2.216058    0.028272    2.187882
H      3.990624    1.569920   -1.439346
H      4.113531   -1.660161    1.189431
H      3.025768   -0.706937   -2.758373
H      3.303358   -2.663699   -1.187389
H      5.184509    0.109158    0.059513
H     -3.429419    1.686279    2.853942
