60

C      2.661660   -1.970580   -0.840906
C     -1.842300    2.161979   -0.980195
C     -0.381469    1.782832   -0.913022
C     -4.378634   -0.079954    1.797337
C     -0.350498   -1.576565    0.614906
C      2.762650    1.226782   -1.162995
C      1.121827   -1.375143    0.910984
C     -2.890953   -0.130723    1.773977
C      1.887580    0.556870   -2.155072
C      4.218266    0.575572    1.973726
C     -3.879571    1.804371    0.217296
C      5.160730   -0.489811    0.226865
C     -3.057977   -1.130468   -0.450830
C      3.951120    0.143037    0.722858
C     -2.702436    1.306005   -0.134618
C     -4.885190    1.104798    1.060528
C      2.643445    0.378703    0.097376
C     -0.880572   -0.203948    0.329045
C     -0.335224    0.271777   -0.984471
C      5.568901    0.245903    2.306510
C      1.848191   -0.825962   -0.289225
C     -2.352382   -0.059977    0.350112
C      0.937634   -0.334457   -1.393448
O     -2.762838   -2.365944    0.161544
O     -6.024217    0.827236    0.301867
O      6.187142    0.489301    3.401850
O      0.675759   -1.427601   -2.229000
O      6.144309   -0.401582    1.235659
H      1.899796   -2.608868   -1.400234
H      3.001169   -2.657263   -0.038780
H      3.391522   -1.704704   -1.598012
H     -2.169628    2.040763   -2.033314
H     -1.917220    3.236167   -0.734900
H      0.130698    2.294488   -1.722813
H      0.004329    2.129188    0.067512
H     -4.870788   -0.985056    1.380396
H     -4.704384    0.000047    2.872158
H     -0.863151   -2.052794    1.474624
H     -0.408739   -2.188300   -0.306239
H      3.838791    1.182494   -1.452088
H      2.536290    2.288286   -0.985111
H      1.593190   -2.298221    1.306754
H      1.173992   -0.630803    1.735021
H     -2.504552    0.701353    2.388687
H     -2.524331   -1.109348    2.189704
H      1.398751    1.212160   -2.886377
H      2.555761   -0.114462   -2.774034
H      3.536853    1.095097    2.646760
H     -4.173555    2.819001   -0.124346
H      5.074099   -1.600255    0.033447
H      5.602587    0.018885   -0.660799
H     -2.656152   -1.231757   -1.481821
H     -4.141448   -1.005686   -0.497468
H     -5.227958    1.879655    1.811026
H      1.972675    0.987653    0.765420
H     -0.470249    0.461167    1.146728
H     -1.102495    0.021725   -1.780129
H     -2.658814   -3.088345   -0.493612
H     -6.221583    1.648489   -0.226448
H     -0.140410   -1.243209   -2.771563
