54

C      3.613271    1.143480   -1.201634
C      2.330804   -2.202108    0.071894
C      4.567542   -1.334397   -0.392854
C      2.873210   -1.421985   -2.168624
C     -1.047635    2.949842    1.778583
C     -2.611182    3.099619   -0.081879
C     -0.272176    3.652734   -0.429708
C     -4.323798   -1.714811   -1.116894
C     -3.139125   -3.690080    1.662790
C     -4.117503   -3.361417    0.723185
C     -1.517461   -1.005922   -0.145183
C      2.730901    0.258010   -0.321619
C     -2.399408   -2.047991    0.402061
C     -0.878217    1.289098   -0.090327
C      0.543078    0.942655    0.233279
C      3.096882   -1.163480   -0.692137
C     -1.214998    2.691106    0.307923
N     -2.113764   -2.858261    1.420928
N     -1.744311    0.293998    0.440848
N      1.380540    0.581788   -0.659069
N     -3.624278   -2.357975   -0.022010
O      0.947022    1.021506    1.550066
H      3.188301    2.167648   -1.120491
H      3.441715    0.809787   -2.243185
H      4.658103    1.126101   -0.884571
H      2.054289   -1.881671    1.093416
H      3.025422   -3.078976    0.228916
H      1.475789   -2.614969   -0.505712
H      4.791491   -2.439739   -0.352083
H      4.830451   -0.916688    0.584667
H      5.196166   -0.946342   -1.221056
H      2.569546   -2.463084   -2.359549
H      3.793433   -1.224890   -2.753361
H      2.060694   -0.753885   -2.517454
H     -1.456022    2.064898    2.319018
H      0.002395    3.160485    2.069019
H     -1.710587    3.797588    2.053303
H     -3.378353    2.372929    0.216434
H     -2.835865    4.049048    0.466788
H     -2.681406    3.374020   -1.163548
H     -0.079389    4.526531    0.203198
H     -0.654396    3.896864   -1.429544
H      0.690085    3.097981   -0.598562
H     -5.101685   -2.374665   -1.554281
H     -4.766859   -0.772241   -0.723275
H     -3.617683   -1.421136   -1.920241
H     -3.243277   -4.460004    2.402189
H     -5.084402   -3.793673    0.583920
H     -0.475320   -1.324560    0.005008
H     -1.769786   -0.898942   -1.234474
H      3.025229    0.433418    0.712380
H     -0.958684    1.234353   -1.210199
H     -1.556129    0.213601    1.478307
H      1.487343    0.274805    1.965649
