54

C     -2.196902    2.300989   -0.582196
C     -4.271762   -0.478994    1.062376
C     -4.693897    1.850310    0.503344
C     -4.166944    0.248250   -1.234863
C      0.849243   -3.166112    1.413848
C      2.712739   -2.461903    0.018770
C      0.620957   -3.026435   -1.090760
C      3.588042    2.955869    1.215092
C      5.427366    0.845152   -1.018213
C      5.381989    1.788286   -0.018646
C      1.813246    1.113674   -0.509454
C     -2.393836    1.097375    0.383326
C      3.310870    1.273763   -0.566169
C      0.773539   -0.958697    0.237376
C     -0.626867   -0.709608    0.456393
C     -3.789095    0.645151    0.169127
C      1.165525   -2.442448    0.155729
N      4.118159    0.549976   -1.334628
N      1.555524   -0.295619   -0.672944
N     -1.279180    0.335569    0.339137
N      4.077651    2.021948    0.225525
O     -1.450602   -1.817674    0.897453
H     -2.683809    3.211665   -0.121454
H     -1.117294    2.487373   -0.695691
H     -2.652488    2.165551   -1.550011
H     -3.634209   -0.614496    1.924076
H     -5.328463   -0.251342    1.393264
H     -4.383129   -1.405203    0.461110
H     -4.728563    2.577776   -0.306253
H     -5.707724    1.382377    0.681885
H     -4.342936    2.234611    1.457383
H     -5.291405    0.382061   -1.280802
H     -4.019578   -0.858801   -1.378256
H     -3.758422    0.782377   -2.052001
H      1.739269   -3.804500    1.718347
H      0.787101   -2.444705    2.288004
H     -0.006220   -3.855635    1.383824
H      3.078714   -1.801387    0.808387
H      3.013245   -2.196875   -1.010518
H      3.006217   -3.502078    0.208207
H     -0.044362   -2.414383   -1.700479
H      1.463909   -3.326094   -1.804800
H      0.057894   -3.996167   -0.900223
H      2.598544    3.316887    0.934035
H      3.624431    2.478703    2.239513
H      4.306097    3.800939    1.249976
H      6.314162    0.431840   -1.445303
H      6.230234    2.228328    0.447611
H      1.381864    1.493187    0.378493
H      1.443785    1.631831   -1.413442
H     -2.463668    1.650235    1.414034
H      1.292345   -0.703662    1.320398
H      1.513077   -0.601886   -1.672681
H     -2.214383   -2.147350    0.373405
