42

C      4.609102   -1.920273   -0.536526
C     -1.653635    0.734075   -1.196437
C     -3.339884   -2.411471    0.161299
C      3.761523   -0.816635   -0.005337
C     -0.231945    4.305231    0.848344
C      0.928690    3.718197    0.329359
C     -1.256219    3.473417    1.224583
C      0.968393    2.354124    0.234426
C     -1.174709    2.091235    1.109537
C     -0.355469   -0.761697    1.614297
C     -1.696713   -1.414146    1.483325
C     -1.312613   -1.651986   -0.889157
C     -0.665228   -0.337081   -0.827418
C     -0.063509    1.489143    0.611803
C      2.310921   -1.128794    0.069748
C      0.093812    0.004895    0.422657
N     -1.928695   -2.153998    0.299044
O      1.785609   -2.236329   -0.069633
O      1.465528   -0.125087    0.299861
H      4.583321   -2.802912    0.089468
H      4.393664   -2.098305   -1.622644
H      5.671319   -1.528883   -0.502938
H     -1.203915    1.747800   -1.282497
H     -2.602461    0.674314   -0.663818
H     -1.932459    0.493117   -2.277028
H     -3.525417   -3.320120   -0.444301
H     -3.774405   -2.568058    1.164231
H     -3.889441   -1.528580   -0.249652
H      3.864400    0.138455   -0.586393
H      4.158405   -0.573072    1.030279
H     -0.288322    5.397628    0.939445
H      1.719417    4.358209    0.038703
H     -2.149588    3.921993    1.624615
H      1.877499    1.932661   -0.170582
H     -1.997951    1.511269    1.430214
H     -0.419744   -0.116121    2.536007
H      0.350046   -1.556279    1.938345
H     -1.784664   -2.148015    2.349838
H     -2.574727   -0.751775    1.634134
H     -0.674592   -2.481413   -1.281305
H     -2.128715   -1.606608   -1.671168
H      0.083370   -0.308124   -1.697031
