45

C     -5.062155    1.744423    1.816531
C     -1.603211   -2.360414   -1.273817
C     -5.646061    1.254638    0.530317
C     -4.723719    0.824481   -0.529181
C     -3.842997   -0.358029   -0.286680
C      6.766184    2.131899   -0.612173
C     -2.871815   -0.266838    0.835394
C      6.429438    1.210112   -1.558315
C      6.123734    2.113884    0.603933
C     -1.995116   -1.437224    1.067365
C      5.447052    0.260353   -1.299445
C      5.136291    1.168678    0.880528
C      3.750504   -0.772221    0.202268
C      2.383547   -0.241758   -0.208016
C     -1.063921   -1.900094    0.030148
C      4.804751    0.241197   -0.085610
C      1.322290   -1.227972    0.067399
O      1.600035   -2.358566    0.585293
O      0.007160   -0.989977   -0.211620
H     -4.023300    2.076289    1.631287
H     -5.189412    1.042114    2.661621
H     -5.671130    2.649932    2.128238
H     -2.615365   -2.791081   -1.181917
H     -1.463849   -1.666765   -2.129317
H     -0.965023   -3.256911   -1.598963
H     -6.271609    2.099300    0.093227
H     -6.371847    0.414321    0.724742
H     -5.233628    0.752506   -1.530560
H     -4.003218    1.700487   -0.712491
H     -4.520632   -1.244900   -0.174478
H     -3.286259   -0.565708   -1.242687
H      7.522295    2.869688   -0.799632
H     -3.452260   -0.152507    1.809863
H     -2.324661    0.693347    0.716474
H      6.934540    1.220532   -2.520932
H      6.386145    2.842736    1.359523
H     -1.394412   -1.320059    2.026652
H     -2.702434   -2.281050    1.364953
H      5.227549   -0.441604   -2.091660
H      4.651132    1.179481    1.841267
H      3.986906   -1.682506   -0.378090
H      3.740313   -1.036530    1.278761
H      2.196365    0.648438    0.424097
H      2.401412    0.009682   -1.277745
H     -0.519607   -2.795803    0.484323
