35

C     -0.464971    1.841009    2.176245
C      3.054961   -1.163135    0.167865
C     -2.468664   -0.489721    0.216988
C     -1.705208    1.603298   -0.678521
C     -0.288607    0.575763    1.877137
C     -0.373385   -1.864539   -0.921715
C     -0.085362   -1.486490    0.518942
C      0.702185    0.154057   -1.635345
C      2.298581    0.083208    0.311727
C     -0.673135   -0.532128   -1.552269
C     -1.280885    0.228918   -0.404948
C     -0.122975    0.029182    0.555142
C      1.044831    0.536163   -0.239111
O      2.890453    0.897100    1.065433
O      1.079497    1.971940   -0.112501
H     -0.503842    2.620593    1.429944
H     -0.585193    2.190488    3.212295
H      3.156497   -1.641280    1.161113
H      2.713922   -1.895789   -0.545465
H      4.134331   -0.856328   -0.066250
H     -3.427611    0.022087   -0.072830
H     -2.504607   -1.557382    0.030172
H     -2.383397   -0.337726    1.313702
H     -2.429825    1.536615   -1.556020
H     -0.983043    2.345392   -0.990129
H     -2.383102    1.927394    0.152547
H     -0.266403   -0.131131    2.727911
H     -1.163311   -2.620400   -1.038381
H      0.542769   -2.260923   -1.447589
H      0.860465   -1.921278    0.839552
H     -0.876009   -1.912018    1.198869
H      1.367536   -0.591113   -2.092663
H      0.601965    0.994099   -2.333485
H     -1.215607   -0.539795   -2.469274
H      1.737150    2.243870   -0.799090
