27

C     -2.646253   -0.293908    1.142473
C     -1.982141    1.433937   -0.524572
C      1.701540   -0.255113    1.156145
C      1.626023    0.071095   -1.218715
C      0.262372    0.057932    1.150504
C      0.236218   -0.462709   -1.309374
C      3.763858   -0.543127   -0.049860
C     -1.876444    0.006865   -0.132784
C      2.338324   -0.243384    0.008073
C     -0.497222   -0.538595   -0.004636
O      4.401065   -0.814389    0.982604
H     -2.124679    0.195967    1.965950
H     -3.696944    0.030194    1.006926
H     -2.630345   -1.411290    1.253989
H     -1.201246    2.093166   -0.168196
H     -2.032155    1.574330   -1.644693
H     -2.956730    1.825098   -0.154088
H      2.228900   -0.492194    2.097441
H      2.234559   -0.270562   -2.080655
H      1.606282    1.197472   -1.314691
H      0.168263    1.161687    1.202255
H     -0.154287   -0.316583    2.119686
H      0.289621   -1.449341   -1.811865
H     -0.337863    0.191784   -1.994910
H      4.288492   -0.534674   -0.986784
H     -2.394349   -0.599350   -0.934811
H     -0.614858   -1.614311    0.244588
