38

C      3.436469   -0.177670    1.872547
C      2.666576    1.554356    0.407202
C     -0.998045    1.918769    0.914590
C     -0.483097    1.206215   -1.452243
C     -2.982141   -0.156084    0.751752
C     -1.702354   -0.283352    1.591788
C     -2.685342   -1.080358   -0.417623
C     -0.875593   -1.754232   -2.135808
C      0.462666   -2.074118   -1.486418
C      2.627570    0.122801    0.842348
C     -0.583669    0.436815    0.842147
C     -1.492955   -1.002155   -0.983913
C      0.887947   -0.704550   -0.892953
C      1.819704   -0.898425    0.206360
C     -0.421312   -0.034883   -0.540660
O      1.941668   -2.086150    0.666252
H      3.453316   -1.178160    2.227352
H      4.046775    0.570994    2.322779
H      2.208304    2.231898    1.127461
H      3.760251    1.858515    0.366255
H      2.299473    1.721411   -0.601028
H     -0.124564    2.593227    0.955734
H     -1.536228    2.106738    1.891552
H     -1.684919    2.190765    0.092509
H     -1.525025    1.381640   -1.772217
H      0.083841    1.002129   -2.407571
H     -0.002487    2.083133   -1.007314
H     -3.840576   -0.528755    1.334354
H     -3.147537    0.833494    0.347904
H     -1.439862   -1.353311    1.618888
H     -1.851810    0.126235    2.593697
H     -3.426151   -1.771600   -0.766112
H     -1.378905   -2.693653   -2.353191
H     -0.780226   -1.097555   -2.996062
H      1.190726   -2.413003   -2.238385
H      0.345602   -2.811650   -0.693211
H      0.308833    0.372837    1.500535
H      1.423078   -0.212309   -1.729299
