33

C      4.576273   -0.555171    1.191510
C     -4.307869   -0.726110   -0.146030
C      2.540133   -0.884660   -2.101824
C     -2.124484    1.986048    0.148039
C      4.045397    0.199854   -0.010838
C     -3.808180   -0.130981    1.147467
C      2.566154    0.277973   -0.001537
C     -2.306331   -0.206799    1.268217
C      1.854527   -0.233398   -0.987661
C     -1.697749    0.555862    0.120361
C      0.403730   -0.141693   -0.951336
O     -0.294136   -0.626969   -1.889228
O     -0.294974    0.463679    0.078943
H      5.576956   -0.989703    0.989611
H      4.690027    0.095292    2.083820
H      3.850906   -1.352814    1.491836
H     -3.660069   -1.564580   -0.434367
H     -5.360534   -1.025041   -0.002074
H     -4.292125   -0.000876   -0.985541
H      3.250881   -1.675987   -1.787125
H      3.068726   -0.097298   -2.689879
H      1.795617   -1.378080   -2.752679
H     -2.053061    2.347480    1.199169
H     -3.125569    2.166180   -0.273761
H     -1.373990    2.566444   -0.455881
H      4.506427    1.228125    0.054887
H      4.420624   -0.226357   -0.956315
H     -4.171019    0.891233    1.277570
H     -4.241582   -0.749982    1.969952
H      2.072165    0.762507    0.828826
H     -1.998462   -1.255205    1.280142
H     -2.034640    0.227391    2.249732
H     -2.073770    0.053636   -0.819468
