23

C      0.147042   -1.635841    0.168513
C     -1.176178   -1.004700   -0.136751
C      1.250955   -0.664390    0.418813
C     -0.985207    0.240710   -0.952347
C      0.621679    0.640481    0.883064
C     -0.059219    1.238365   -0.336510
O     -1.920965   -0.854223    0.990015
O      1.980594   -0.448587   -0.770527
O     -2.153978    0.845799   -1.326860
O      1.589640    1.496217    1.389311
O      0.989961    1.599595   -1.214432
H      0.478991   -2.317986   -0.666079
H      0.086392   -2.305184    1.070590
H     -1.726081   -1.730026   -0.808139
H      1.977918   -1.000376    1.163017
H     -0.492270   -0.105959   -1.911139
H     -0.094101    0.430330    1.679645
H     -0.573504    2.172315   -0.077248
H     -2.413073   -0.030570    1.098102
H      2.641906   -1.194012   -0.862015
H     -2.861572    0.876993   -0.672884
H      1.738560    1.209776    2.342776
H      0.952511    2.541273   -1.468913
