25

C      4.257858    1.862124    2.444650
C     -2.220287   -1.798556    0.842734
C      3.541185    1.494415    1.586843
C      2.078008    1.491297    1.323165
C      0.605386    1.499306    1.044059
C     -0.736148    1.504221    0.769060
C     -0.706803   -0.520313   -2.288232
C     -1.351112   -0.833592   -0.099433
C     -0.918543    0.219748   -0.011247
C     -1.370737   -1.551943   -1.506806
C      0.171439    0.090996   -1.338577
O     -2.823748   -1.478021   -1.719309
O      1.232672    0.509943   -1.073318
H      4.091156    2.405281    3.499518
H      5.321179    1.501521    2.474566
H     -2.244247   -1.452976    1.847095
H     -3.160358   -1.873664    0.325696
H     -1.659658   -2.782873    0.688628
H      4.028432    0.957022    0.652739
H     -0.902377    2.357327   -0.017686
H     -1.395345    1.610047    1.541148
H     -1.492997    0.245716   -2.643370
H     -0.214396   -0.896800   -3.182137
H     -1.108169   -2.537099   -1.449990
H     -3.022389   -2.023127   -2.535804
