107

C      5.383641   -4.676013   -1.258832
C      5.635735   -0.588559   -4.099324
C      4.565362    1.058810    5.171227
C      5.890986    3.919052    1.411586
C     -7.600603    2.222817   -0.604369
C     -4.063738    3.849034   -3.691366
C     -3.490209   -1.863709    4.590235
C     -6.034114   -3.829843    0.729884
C      1.229532    0.253626   -3.181789
C     -0.970373   -0.765444   -2.982744
C      5.571793   -3.952659   -4.584910
C      5.162465    4.353703    4.660762
C     -6.863018    5.140564   -2.095638
C     -4.714409   -4.941459    3.704411
C      4.228407   -2.547326   -0.596085
C      4.359807   -0.626243   -1.952614
C      3.801783    0.506600    2.836561
C      4.447231    1.889966    1.043111
C     -5.276285    1.332025   -0.521101
C     -3.573807    2.121883   -2.014801
C     -3.243987   -1.004674    2.247585
C     -4.442385   -1.933882    0.439643
C      1.378963   -1.080672    0.947034
C     -1.350944    1.085051    0.563469
C      5.017068   -3.248217   -1.493973
C      5.147374   -1.288933   -2.871289
C      4.511511    1.334996    3.712386
C      5.149433    2.716067    1.882752
C     -6.201610    2.173661   -1.078988
C     -4.513757    2.964597   -2.568295
C     -3.834509   -1.898773    3.130865
C     -5.049039   -2.834463    1.273991
C      3.878604   -1.218319   -0.800809
C      3.755926    0.768145    1.484702
C     -3.975920    1.303767   -0.981338
C     -3.533715   -1.004345    0.895496
C      0.217956   -0.791126   -0.015634
C     -0.042826    0.679139   -0.120013
C      5.463104   -2.601856   -2.619329
C      5.181353    2.436898    3.223081
C     -5.808334    2.995646   -2.113266
C     -4.732832   -2.801979    2.615987
C      0.163677   -0.175842   -2.166444
O      6.254287   -3.274245   -3.538130
O      5.886562    3.260941    4.089382
O     -6.748030    3.846594   -2.675771
O     -5.332157   -3.700646    3.475874
O      0.633421   -1.126405   -1.301847
O     -0.197353    0.942981   -1.463864
P      2.862020   -0.260106    0.323337
P     -2.739036    0.186284   -0.243678
H      6.384928   -4.912694   -1.670799
H      4.596571   -5.367065   -1.649735
H      5.452211   -4.859478   -0.159668
H      6.498387   -1.117069   -4.526667
H      4.800488   -0.441295   -4.810502
H      5.978292    0.427643   -3.802299
H      5.471773    1.544204    5.596716
H      3.675419    1.447092    5.708612
H      4.685436   -0.039327    5.346647
H      6.262947    3.681292    0.379360
H      5.149286    4.740054    1.262695
H      6.713694    4.189873    2.074022
H     -7.614200    2.807671    0.325344
H     -8.294808    2.622659   -1.365623
H     -7.962844    1.197121   -0.352322
H     -3.539806    4.738509   -3.285752
H     -3.368200    3.251297   -4.307382
H     -4.909703    4.156634   -4.323209
H     -2.403064   -1.584217    4.627112
H     -4.066119   -1.026004    5.027954
H     -3.667128   -2.833885    5.072040
H     -5.542557   -4.656389    0.201584
H     -6.696204   -3.258646    0.023990
H     -6.721179   -4.169492    1.544747
H      1.875302    1.047149   -2.771049
H      0.741296    0.682103   -4.092233
H      1.868331   -0.613789   -3.459236
H     -1.740038   -0.015379   -3.247403
H     -0.581067   -1.155903   -3.961554
H     -1.377774   -1.631523   -2.438454
H      4.891874   -3.219758   -5.075631
H      4.929748   -4.713662   -4.108492
H      6.267483   -4.429970   -5.283996
H      4.198182    3.964188    5.063977
H      4.893799    5.088509    3.878086
H      5.758862    4.841257    5.444169
H     -7.419962    5.072649   -1.137425
H     -5.863408    5.544648   -1.872712
H     -7.445932    5.810753   -2.776193
H     -4.987921   -5.703791    2.945366
H     -5.082583   -5.321877    4.676768
H     -3.621894   -4.872616    3.752117
H      3.866775   -3.026612    0.289577
H      4.125386    0.408398   -2.175457
H      3.285907   -0.341793    3.212659
H      4.439843    2.135927   -0.011635
H     -5.574794    0.675817    0.298680
H     -2.544597    2.102881   -2.382800
H     -2.528987   -0.287717    2.665100
H     -4.670360   -1.932969   -0.628143
H      1.117973   -0.706363    1.946126
H      1.431845   -2.186432    1.020455
H     -1.474395    2.168278    0.333532
H     -1.221941    0.878287    1.623703
H     -0.671708   -1.391499    0.245486
H      0.786123    1.285209    0.272631
