22

C     -1.744576    0.780628   -0.402150
C     -0.853162    0.994551    0.812538
C     -1.036861   -1.285148    0.345916
C      0.271638   -0.199323   -1.341380
C     -1.172202   -0.489103   -0.965379
C     -0.045725   -0.281228    0.974700
C      1.032167   -0.409686   -0.055296
C      2.164919    0.493161    0.121942
O      2.487411    1.364176   -0.705042
O      2.922925    0.371151    1.278338
H     -1.705641    1.624699   -1.100026
H     -2.801935    0.539075   -0.089329
H     -0.215289    1.869534    0.585184
H     -1.492467    1.117068    1.689096
H     -0.540507   -2.242332    0.178237
H     -1.975277   -1.323892    0.893367
H      0.359734    0.863596   -1.648302
H      0.630607   -0.842763   -2.144717
H     -1.748165   -0.985070   -1.712341
H      0.217576   -0.527842    1.984439
H      1.360970   -1.480542   -0.058682
H      3.883858    0.669974    1.358886
