58

C     -3.496720    3.835405    0.370721
C     -3.652231    2.771148    1.232263
C     -3.450592    0.593089    1.997461
C     -3.324750   -0.862388    1.786113
C      5.574222   -0.257092    1.887202
C      6.068221    0.026357   -0.408509
C     -0.109077   -1.214276   -1.775413
C      0.259310    1.111785   -1.454938
C     -2.840197    3.644822   -0.820355
C      0.620995   -1.500130   -0.483243
C      0.906308    0.906936   -0.117766
C      6.875734   -0.675532    2.078007
C      7.369753   -0.393994   -0.207498
C      3.759197    0.553895    0.403275
C     -4.704389   -2.156101    0.326295
C     -4.584976   -2.197729   -2.013709
C      5.155687    0.102191    0.622566
C     -0.858099    0.111553   -1.763049
C     -3.144128    1.501780    0.896402
C     -3.662552   -1.280456    0.372736
C     -5.191980   -2.637349   -0.864871
C     -3.505435   -1.291423   -1.990046
C      2.908361   -0.609826    0.085056
C     -3.039863   -0.832397   -0.810156
C     -1.925592    0.104468   -0.803965
C     -2.495072    1.372577   -0.313154
Br    -2.859056   -0.767030   -3.705159
Cl    -6.531728   -3.762314   -0.869454
N     -2.376570    2.435106   -1.100515
N      1.526190   -0.416975   -0.164579
N      7.740556   -0.733887    1.028482
O      3.340756   -1.789243    0.019565
O      9.038331   -1.153554    1.231743
H     -3.895836    4.805907    0.648448
H     -4.169629    2.896825    2.183667
H     -2.774741    0.854239    2.868290
H     -4.467413    0.820405    2.388321
H     -2.296645   -1.261698    2.007248
H     -4.011595   -1.421155    2.451718
H      4.933534   -0.231271    2.757940
H      5.786900    0.299139   -1.426076
H      0.700737   -1.123862   -2.559349
H     -0.720893   -2.079401   -2.027227
H      1.043098    0.863232   -2.206944
H     -0.033262    2.140879   -1.669366
H     -2.706746    4.455580   -1.505696
H     -0.019837   -1.768493    0.357319
H      1.247043   -2.393984   -0.692178
H      0.234602    0.889224    0.746050
H      1.692048    1.696998   -0.024516
H      7.276374   -0.971620    3.032468
H      8.093796   -0.457543   -1.007523
H      3.755384    1.302633   -0.430610
H      3.418918    1.104220    1.305355
H     -5.157201   -2.477790    1.270160
H     -4.946422   -2.558450   -2.967515
H     -1.053562    0.304437   -2.823026
H     -1.319266   -0.227869    0.151404
