74

C     -2.678501    3.155375   -2.827475
C     -2.688872    3.850701   -1.503817
C     -2.572986    2.992754   -0.302749
C     -2.597274   -2.647446    4.100805
C     -3.648699    1.998897   -0.036866
C     -1.939804   -3.247819    3.060053
C     -0.940563   -3.458690    0.980133
C     -0.863977   -3.103005   -0.459430
C      6.408352   -0.982424   -0.070542
C      6.791102    1.235983    0.567017
C      0.211167    0.574910    1.765641
C      0.254181    0.253695   -0.691619
C     -2.969380   -1.326186    3.968362
C      1.706602    0.629223    1.754980
C      1.259181    1.389976   -0.540538
C      7.674173   -1.019845   -0.587435
C      8.059178    1.172842    0.039947
C      4.574896    0.259350    1.099885
C     -2.487736   -2.742649   -2.109993
C     -4.852038    1.058649   -2.056773
C      5.938307    0.155333    0.521654
C     -0.287637   -0.259134    0.578181
C     -1.648506   -2.537549    1.880963
C     -1.892597   -2.196963   -0.991695
C     -3.891490    0.955524   -1.010155
C     -3.463294   -2.084010   -2.782404
C      3.598235    0.737804    0.116083
C     -2.302509   -0.950939   -0.550323
C     -1.843698   -0.273136    0.633231
C     -3.309660   -0.252349   -1.235243
C     -2.049162   -1.238034    1.828242
C     -3.886694   -0.845870   -2.364552
Cl    -4.208462   -2.790550   -4.197573
N     -2.683194   -0.654189    2.828775
N     -4.821349   -0.009929   -2.828590
N      2.237492    0.912610    0.432230
N      8.497183    0.041694   -0.536910
O      3.982673    1.002832   -1.051161
O      9.782599   -0.020753   -1.071045
H     -3.624711    3.235619   -3.396725
H     -2.321580    2.108259   -2.790058
H     -1.926520    3.685690   -3.497378
H     -3.687186    4.389789   -1.449155
H     -1.924486    4.685002   -1.498298
H     -1.589105    2.453004   -0.404457
H     -2.448703    3.662578    0.600336
H     -2.828297   -3.204116    5.031032
H     -3.834686    1.757929    1.036992
H     -4.585174    2.696457   -0.125595
H     -1.644404   -4.296674    3.164379
H     -1.484836   -4.451954    1.070843
H      0.105741   -3.582848    1.361158
H     -0.988884   -4.120268   -1.006705
H      0.165944   -2.830709   -0.819883
H      5.731982   -1.842934   -0.107236
H      6.464098    2.164814    1.027908
H     -0.185592    1.607358    1.724705
H     -0.090627    0.088781    2.725129
H      0.833802   -0.562738   -1.217761
H     -0.501939    0.574993   -1.432589
H     -3.486109   -0.863819    4.792929
H      2.188004   -0.237844    2.236609
H      1.998002    1.518531    2.387193
H      0.801611    2.328142   -0.227010
H      1.783674    1.470625   -1.527492
H      8.022836   -1.924407   -1.047972
H      8.720416    2.035519    0.083620
H      4.276045   -0.701401    1.585704
H      4.645486    0.993599    1.954310
H     -2.145848   -3.736928   -2.446351
H     -5.511370    1.925660   -2.176860
H      0.062392   -1.259174    0.783055
H     -2.025180    0.694495    0.919162
H     -5.412034   -0.197711   -3.662836
