52

C     -3.081787    2.271184    0.551589
C     -1.606016    2.721542   -1.299470
C     -0.987792   -2.106671    1.897604
C      4.449599    1.516641   -1.726090
C      5.432972    0.564270   -1.933082
C      3.400707    1.275699   -0.871007
C      5.330920   -0.633220   -1.257215
C      1.124063    0.324446    1.202357
C     -1.311685   -0.452602   -1.543616
C     -3.416262   -0.462519   -0.396461
C      2.780617   -1.658628    1.044589
C      2.346939   -0.382305    0.703240
C     -2.434669    0.435344   -1.054315
C      3.292117    0.078046   -0.190531
C     -0.549389   -0.896566   -0.285660
C      4.277322   -0.881867   -0.394912
C      0.020650    0.360121    0.215472
C     -2.880369   -1.444154    0.573912
C     -2.013547    1.624048   -0.295162
C     -1.420927   -1.767512    0.475345
N      3.921477   -1.921714    0.379264
N     -0.913201    1.403331    0.529218
O     -3.213749   -0.961895    1.869514
O     -1.382202   -3.049213   -0.114706
H     -4.040625    2.381165    0.061304
H     -3.108680    1.765189    1.538271
H     -2.713214    3.305672    0.771701
H     -1.030942    3.520002   -0.811620
H     -2.583233    3.167092   -1.640506
H     -1.110777    2.307562   -2.176641
H     -1.105387   -1.267259    2.586729
H     -1.775380   -2.848138    2.246644
H     -0.056828   -2.653099    1.942091
H      4.534773    2.465302   -2.264480
H      6.233947    0.793752   -2.609309
H      2.646231    2.052369   -0.735558
H      6.101205   -1.368859   -1.424477
H      0.920675   -0.049958    2.185566
H      1.458045    1.392674    1.348387
H     -1.727748   -1.290004   -2.102713
H     -0.654428    0.193428   -2.165579
H     -4.212883    0.201600    0.055990
H     -3.986473   -0.989728   -1.222207
H      2.308395   -2.338660    1.718728
H     -2.918812    0.806294   -2.012440
H      0.294853   -1.490500   -0.706536
H      0.520772    0.839066   -0.678596
H     -3.543524   -2.349204    0.517078
H      4.476758   -2.802572    0.435887
H     -0.446496    2.250406    0.861178
H     -4.181375   -0.921271    1.922260
H     -1.464638   -3.028125   -1.084496
