66

C      5.601731   -0.780485   -0.050265
C      5.788763   -0.061353    1.205464
C     -9.301123   -0.863454    2.029652
C     -8.540732    0.275947    2.298136
C     -9.198588   -1.469519    0.817226
C      4.413384   -1.135464   -0.475802
C      6.648070   -0.805097    2.196440
C     -7.689190    0.783206    1.333283
C     -8.341643   -0.949778   -0.137449
C      3.105636   -0.897373    0.180350
C      8.027925   -1.130746    1.723407
C     -4.454638    0.914253    0.118716
C     -4.933653   -1.014379   -1.189241
C      2.542377    1.578320   -2.562740
C      1.014039    1.593459   -2.466799
C     -3.194536    0.416164    0.361998
C     -3.649035   -1.506792   -0.932806
C     -6.679870    0.697350   -0.930674
C      1.936449    2.207289   -0.413276
C     -7.582722    0.170125    0.101025
C     -5.318286    0.191977   -0.658398
C      2.915625    1.256496   -1.128611
C      0.669744    1.560116   -1.012601
C     -2.764762   -0.789260   -0.149483
C      2.304917   -0.065026   -0.791125
C      8.809510    0.080976    1.399883
C      0.873276    0.162495   -0.397101
N     -0.027984   -0.790349   -0.988324
O      8.447522    1.002959    0.632905
O     10.088885    0.242861    1.999903
O     -0.781149   -0.884483    1.586113
O     -1.082909   -2.852015    0.222686
S     -1.132549   -1.353733    0.207064
H      6.495403   -1.038371   -0.673646
H      4.825536    0.177016    1.692099
H      6.246451    0.961345    1.030933
H     -9.942217   -1.195043    2.837598
H     -8.618614    0.763959    3.252483
H     -9.785607   -2.350333    0.606443
H      4.361458   -1.687339   -1.439898
H      6.669137   -0.283853    3.176845
H      6.145854   -1.792404    2.432399
H     -7.083247    1.671600    1.510498
H     -8.273300   -1.442994   -1.092601
H      2.521789   -1.879945    0.238174
H      3.124075   -0.531140    1.193030
H      8.013204   -1.820393    0.832877
H      8.583561   -1.704429    2.494028
H     -4.751247    1.862265    0.542628
H     -5.611479   -1.578792   -1.802517
H      2.949895    2.552845   -2.875963
H      2.891470    0.779979   -3.250745
H      0.640487    0.750360   -3.040881
H      0.588429    2.510504   -2.912947
H     -2.473440    0.967999    0.985712
H     -3.307132   -2.444682   -1.327921
H     -6.647045    1.824141   -0.856666
H     -6.995981    0.408272   -1.969534
H      1.974429    2.056102    0.673067
H      2.072746    3.231753   -0.769014
H      3.942897    1.408543   -0.870550
H     -0.239054    2.045642   -0.720983
H      2.262399   -0.667452   -1.736949
H      0.670664    0.263208    0.664043
H     -0.545134   -0.475053   -1.808887
H     10.779130    0.872004    1.660049
