48

C     -5.726163    0.048645    2.016523
C      1.316077   -1.501051    4.020608
C      5.276415   -0.168852   -0.705898
C      4.552330   -0.482468    0.337154
C     -2.951333    0.497597   -2.191168
C     -4.247228    0.170470   -2.567240
C      6.756052   -0.339618   -0.760912
C      2.343311    0.150150   -0.547745
C      2.516429   -0.735119    1.661014
C     -3.605551    0.455229    0.066588
C      0.289956    1.979174   -2.075502
C      3.115962   -0.346097    0.465741
C     -2.602531    0.646936   -0.868855
C      0.954106    0.277412   -0.411592
C     -0.135983    0.759590   -1.289508
C     -5.235666   -0.017588   -1.628782
C     -4.898245    0.129329   -0.299727
C      1.138651   -0.611131    1.801878
C     -1.262341    0.992364   -0.367705
C      0.361084   -0.106491    0.768666
O      7.257348   -0.867201    0.422125
O      0.644528    3.029908   -1.260792
O     -6.548133   -0.348551   -2.002851
O     -5.915317   -0.066210    0.625689
O      0.511442   -0.989024    2.977757
O     -1.009827    0.095764    0.707747
H     -5.222205   -0.833281    2.407628
H     -6.707212    0.265045    2.518399
H     -5.077906    0.958232    2.180311
H      0.695612   -1.881681    4.862409
H      2.031242   -0.736789    4.382639
H      1.922929   -2.329103    3.591912
H      4.798350    0.233869   -1.577197
H      5.138284   -0.888715    1.181754
H     -2.205097    0.637026   -2.928621
H     -4.475411    0.063804   -3.612190
H      7.264989    0.582071   -1.082683
H      6.956376   -1.096820   -1.556241
H      2.824098    0.444941   -1.462328
H      3.138903   -1.125627    2.453655
H     -3.382805    0.560894    1.118567
H      1.226414    1.686827   -2.637377
H     -0.436177    2.241135   -2.869469
H     -0.371379   -0.034489   -2.028049
H     -1.225751    2.018730    0.063280
H      7.044537   -1.832513    0.466475
H     -0.009892    3.768081   -1.415184
H     -6.823271   -0.461537   -2.950904
