66

C     -5.574784    0.919672    0.742437
C     -5.734337   -0.363062    1.452683
C      8.231138    0.333608    1.668916
C      7.693348   -0.930559    1.735384
C      8.135734    0.993049    0.460476
C     -4.537990    1.183084   -0.003279
C     -7.001525   -1.053965    1.032494
C      7.086611   -1.519599    0.654040
C      7.533219    0.429544   -0.643103
C     -3.407792    0.293578   -0.251608
C     -7.147217   -1.429778   -0.385415
C      4.457029    0.007962   -2.438839
C      3.939334   -1.962673   -1.247417
C     -1.102246    2.274260    2.029840
C      0.162041    1.432139    1.979904
C      3.119859    0.323434   -2.531003
C      2.599868   -1.646603   -1.339833
C      6.358094   -1.448093   -1.722797
C     -1.675929    0.041493    2.311978
C      7.009639   -0.835193   -0.531584
C      4.901920   -1.142419   -1.795400
C     -2.244762    1.335112    1.700599
C     -0.343614    0.102509    1.537254
C      2.145808   -0.512570   -1.973498
C     -2.163016    1.027026    0.250905
C     -7.117382   -0.361714   -1.385843
C     -0.914218    0.169038    0.132174
N      0.002515    0.830632   -0.743401
O     -6.197516   -0.233754   -2.259874
O     -8.116279    0.628792   -1.468520
O     -0.412620   -1.323937   -2.253576
O      0.286958    0.753357   -3.339072
S      0.445093   -0.096278   -2.104052
H     -6.390297    1.697713    0.855131
H     -5.860818   -0.184761    2.567350
H     -4.919610   -1.085726    1.319022
H      8.710400    0.792695    2.532280
H      7.734971   -1.503355    2.657017
H      8.550646    1.992279    0.375941
H     -4.504161    2.175913   -0.501038
H     -7.908287   -0.468018    1.353083
H     -7.109956   -2.010843    1.635528
H      6.664482   -2.535161    0.738688
H      7.477211    0.989039   -1.589449
H     -3.498340   -0.688428    0.204021
H     -3.313405    0.114518   -1.357343
H     -8.167362   -1.915728   -0.485068
H     -6.360462   -2.175719   -0.673563
H      5.203275    0.658314   -2.871971
H      4.269798   -2.859260   -0.744468
H     -1.226969    2.796489    2.997890
H     -1.018358    2.990319    1.184374
H      0.484544    1.330943    3.054133
H      0.944803    1.870892    1.335244
H      2.746006    1.212175   -3.025334
H      1.860847   -2.319462   -0.894011
H      6.422830   -2.567455   -1.647165
H      6.871373   -1.190805   -2.668875
H     -2.258271   -0.835062    2.033088
H     -1.483218    0.155989    3.387475
H     -3.199321    1.611991    2.100635
H      0.284166   -0.746376    1.731771
H     -2.061489    1.974297   -0.314954
H     -1.179674   -0.853512   -0.224735
H     -0.354202    1.774997   -0.985735
H     -7.828131    1.583014   -1.728931
