65

C     -5.878935    3.225792   -0.636305
C     -7.374584    1.540808    0.269460
C     -6.555563    1.281258   -2.020552
C      4.935964   -0.238969    0.023587
C      4.793860    1.014175    0.770382
C      4.010209   -0.859269   -0.577141
C      5.831225    1.959304    0.147153
C      2.590556   -0.493776   -0.666065
C      5.906922    3.285393    0.814719
C      2.633953   -3.961453    0.206485
C      1.324155   -3.872429    1.022282
C     -4.455011   -0.109531   -0.748066
C     -4.423732    1.385062    1.079626
C     -3.415192   -0.808433   -0.190202
C     -3.368685    0.668830    1.634080
C      0.900399   -3.474836   -1.259476
C      2.271662   -2.910530   -0.854819
C      0.305517   -3.350736    0.120694
C     -4.989449    1.011109   -0.121752
C     -2.831593   -0.441321    1.034776
C      1.877586   -1.693143   -0.043241
C      6.989886    4.068693    0.166879
C      0.446041   -1.707836    0.158058
C     -6.150493    1.762623   -0.641902
N     -0.047683   -1.411586    1.454263
O      6.770107    5.087274   -0.545759
O      8.344503    3.715733    0.311667
O     -1.752098   -1.119294    3.326139
O     -2.252762   -2.857486    1.768215
S     -1.657950   -1.437027    1.800333
H     -4.883869    3.464062   -1.091443
H     -5.841741    3.548154    0.430248
H     -6.710088    3.828082   -1.078467
H     -8.196685    2.181352   -0.100383
H     -7.124078    1.820838    1.304383
H     -7.729326    0.500963    0.185890
H     -7.480343    1.834238   -2.322095
H     -5.735774    1.497259   -2.730677
H     -6.843348    0.222910   -1.979971
H      6.010372   -0.638861    0.015695
H      3.779501    1.452441    0.731058
H      5.051087    0.908889    1.841552
H      4.316431   -1.798784   -1.109481
H      5.607545    2.125361   -0.930181
H      6.816847    1.413776    0.164217
H      2.317628    0.457876   -0.246237
H      2.352826   -0.456449   -1.770363
H      4.976470    3.871614    0.680835
H      6.050215    3.145399    1.904462
H      3.473868   -3.554833    0.776925
H      2.795206   -4.951232   -0.197750
H      1.093786   -4.887965    1.439942
H      1.540348   -3.203474    1.872991
H     -4.916558   -0.379479   -1.687867
H     -4.818806    2.263131    1.610672
H     -3.002922   -1.675684   -0.682516
H     -2.944520    0.992687    2.583982
H      0.996924   -4.542402   -1.539119
H      0.432259   -2.857047   -2.022719
H      2.930078   -2.811812   -1.671092
H     -0.726046   -3.591512    0.217632
H      2.399553   -1.773465    0.966324
H     -0.239453   -1.516420   -0.677731
H      0.417430   -0.544537    1.805178
H      9.056368    4.396524    0.504127
