36

C      4.451616   -2.848189    0.351093
C     -3.726957   -2.887693   -0.899618
C     -2.509354    4.281675    0.147458
C      3.442714   -1.775926    0.738420
C      1.316761    1.743311   -0.827672
C      2.185410    0.725968   -0.907694
C     -1.500186   -0.201211    0.674844
C     -2.958268   -1.643267   -0.650541
C     -1.481677    3.276021    0.528843
C      0.114533    1.473750    0.008398
C     -0.445696    0.087866   -0.340274
C      1.798847   -0.498032   -0.147076
O     -3.007828   -0.767237   -1.555666
O     -1.158745    3.196985    1.746310
O      2.732325   -1.462877   -0.417482
O     -2.217569   -1.389645    0.468518
O     -0.869219    2.435022   -0.363202
O      0.496451   -0.893987   -0.387116
H      4.799476   -2.583489   -0.688501
H      5.298970   -2.886928    1.039098
H      3.916098   -3.820704    0.357305
H     -4.813946   -2.591208   -0.827219
H     -3.573206   -3.663759   -0.153216
H     -3.596226   -3.295060   -1.905945
H     -2.273119    5.210586    0.711752
H     -3.541189    3.939230    0.358876
H     -2.383171    4.554060   -0.938398
H      2.791653   -2.138062    1.560619
H      4.003021   -0.902887    1.133577
H      1.481191    2.669732   -1.326640
H      3.099371    0.794878   -1.484522
H     -2.164675    0.690030    0.740704
H     -0.983672   -0.312717    1.672811
H      0.325798    1.481685    1.081263
H     -0.909615    0.226414   -1.348432
H      1.860082   -0.224334    0.924994
