51

C     -3.819274   -0.141549   -0.587003
C      0.460776   -3.997759    1.202079
C      0.684197    3.881936   -1.392090
C      1.754677    2.515917    2.153464
C     -1.859007   -2.981306   -0.158368
C     -1.209538    0.704289   -3.056512
C     -1.921787   -1.808435   -1.106167
C     -2.479368    0.293207   -2.456966
C     -1.486406   -2.684846    1.259173
C     -0.624802    1.985536   -2.488142
C      0.741395   -1.443806    1.418874
C      1.566476    1.713766   -1.156443
C      2.170017   -0.959921    1.459073
C      1.209640    0.776471   -0.061770
C      3.560944    1.237930    2.989099
C     -2.600532   -0.739155   -1.330366
C      0.049290   -2.522159    1.325813
C      0.377467    2.424058   -1.817720
C      2.484855    1.446989    1.994877
C      2.296329    0.476320    0.895242
O      3.766696    2.028020    3.931414
H     -4.159905    0.824346   -1.001496
H     -4.713776   -0.775601   -0.679532
H     -3.618710    0.071666    0.466403
H      0.800096   -4.241248    0.173193
H      1.139470   -4.404768    1.915327
H     -0.451669   -4.669992    1.320820
H      0.600707    4.666136   -2.094991
H      1.809985    3.939879   -1.140198
H      0.227922    4.124793   -0.428546
H      1.922925    3.201884    2.954825
H      0.954378    2.744156    1.479420
H     -1.037401   -3.716152   -0.472437
H     -2.752329   -3.634598   -0.186186
H     -0.546662   -0.159337   -3.117538
H     -1.444796    0.867077   -4.169499
H     -1.024520   -2.153707   -1.793789
H     -3.298288    0.074853   -3.214678
H     -2.868552    1.299235   -2.048096
H     -1.752895   -3.656723    1.823277
H     -2.150994   -2.004890    1.697629
H     -1.533391    2.675105   -2.841111
H      0.253161   -0.380484    1.552177
H      2.267465    2.442688   -0.677670
H      2.210994    1.184124   -1.874421
H      2.592100   -0.915707    2.462499
H      2.882168   -1.524551    0.838017
H      0.799025   -0.167442   -0.545366
H      0.334769    1.195659    0.459537
H      4.176678    0.363143    2.873251
H      3.260001    0.524952    0.296223
