38

C      3.722841   -0.353388    0.699051
C      5.026491    1.535347   -0.329023
C     -4.817266    0.580121    1.959428
C     -0.843849   -2.307329   -0.214207
C     -3.747148   -0.143528   -0.284702
C     -2.406356    0.734237    1.430365
C     -2.729334   -0.288044   -1.078099
C     -1.186871    0.597791    0.638931
C      2.877418    0.973646   -1.238172
C      1.020505   -0.786497   -0.744722
C      3.770408    0.689812   -0.333839
C     -3.625199    0.399312    1.063250
C     -0.409671   -1.092617   -1.025811
C     -1.365117    0.072143   -0.720322
C      1.602074    0.340738   -1.470876
O      0.887240    0.819648   -2.428944
H      3.511073   -1.366955    0.352953
H      4.732836   -0.449901    1.217680
H      3.065274   -0.032528    1.564612
H      5.249402    1.807536   -1.381152
H      5.880104    0.977701    0.069629
H      4.818349    2.486920    0.226186
H     -4.664394    1.592939    2.429047
H     -5.747339    0.678396    1.368776
H     -4.865788   -0.165377    2.754156
H     -0.850044   -3.197040   -0.871294
H     -0.085107   -2.469184    0.561961
H     -1.867238   -2.179922    0.185698
H     -4.759790   -0.428269   -0.597741
H     -2.349709    1.165404    2.468547
H     -2.948195   -0.710019   -2.070388
H     -0.522913   -0.103125    1.276197
H     -0.651105    1.598520    0.639049
H      3.092297    1.812812   -1.946977
H      1.667417   -1.694277   -1.008852
H      1.157949   -0.695158    0.348974
H     -0.538648   -1.331409   -2.085152
H     -1.100600    0.931545   -1.424216
