59

C      7.890438   -1.040154   -0.788101
C      6.395795   -1.211438   -0.961562
C      5.653686   -0.610992    0.202527
C      4.184671   -0.755681    0.078801
C      3.552556   -0.128893   -1.105365
C      3.703211    1.315900   -1.267944
C      3.248273    2.212959   -0.184386
C      1.854668    2.274387    0.250300
C      1.193009    1.093503    0.849061
C     -0.243327    1.527433    1.237706
C     -1.016600    0.428132    1.866986
C     -1.199636   -0.776524    1.001355
C     -1.918061   -0.475095   -0.286308
C     -3.290699    0.083992   -0.102747
C     -4.140816   -0.887431    0.648972
C     -5.550602   -0.379458    0.867414
C     -6.385638   -1.335388   -1.293675
C     -6.263071   -0.106057   -0.423585
N     -7.610033    0.327925   -0.100730
O     -7.068370   -2.317075   -0.581796
H      8.193296   -1.382681    0.203760
H      8.189270   -0.002394   -1.019536
H      8.373181   -1.699920   -1.540737
H      6.191759   -2.302304   -0.959783
H      6.074637   -0.825205   -1.944372
H      5.993366    0.417149    0.442154
H      5.963048   -1.222521    1.104021
H      3.718103   -0.427507    1.030477
H      3.965518   -1.863281    0.026994
H      4.053780   -0.630997   -2.037372
H      2.525695   -0.465227   -1.223129
H      4.728022    1.632582   -1.618440
H      3.074349    1.612061   -2.184467
H      3.632932    3.279990   -0.362036
H      3.855240    1.948682    0.767749
H      1.185749    2.588020   -0.631745
H      1.676484    3.162037    0.952499
H      1.683703    0.768179    1.784999
H      1.052210    0.230483    0.186742
H     -0.109466    2.338424    1.980294
H     -0.780248    1.871090    0.338670
H     -1.985433    0.809890    2.265954
H     -0.479703    0.059980    2.792364
H     -1.758050   -1.563398    1.566468
H     -0.209152   -1.198722    0.756688
H     -2.043935   -1.467074   -0.809685
H     -1.314246    0.139081   -0.965304
H     -3.702280    0.295930   -1.108359
H     -3.297500    1.050712    0.441715
H     -4.132252   -1.891187    0.223347
H     -3.704931   -0.985312    1.684894
H     -5.498657    0.559545    1.432722
H     -6.097767   -1.160367    1.412044
H     -5.429714   -1.730764   -1.639565
H     -6.983064   -1.018851   -2.191646
H     -5.768811    0.720430   -0.973921
H     -7.609891    0.966761    0.741004
H     -8.228487   -0.493966    0.126604
H     -7.986210   -2.394688   -0.958992
