40

C     -1.883234    1.947072    1.712658
C     -3.998744    1.318461    0.725986
C     -1.243456   -2.564950   -1.066133
C      4.775754    1.342712    1.818300
C      3.709092    0.806871    2.526664
C      4.883550    0.966297    0.490979
C      2.796804   -0.058265    1.945749
C      3.978882    0.101528   -0.104996
C     -2.407589    0.123763   -1.371663
C     -1.495340   -0.516978   -2.376740
C     -0.442585    0.035787    0.198485
C     -2.505824    1.150071    0.871608
C     -1.893881    0.096024    0.027865
C      2.926924   -0.417315    0.621724
C      0.366797   -0.623877   -0.855158
C     -0.495832   -1.463693   -1.727491
O      0.286460   -1.996457   -2.768265
S      1.751458   -1.535378   -0.136389
H     -0.824821    1.872263    1.857387
H     -2.422067    2.688488    2.271241
H     -4.489867    0.650921    1.463867
H     -4.340414    1.017333   -0.294009
H     -4.209026    2.385600    0.878086
H     -2.350505   -2.503038   -1.232724
H     -0.971218   -2.753786   -0.005100
H     -0.961687   -3.533720   -1.582160
H      5.488623    2.023558    2.284494
H      3.607823    1.093476    3.577864
H      5.719721    1.383675   -0.069125
H      1.976800   -0.443078    2.570594
H      4.120183   -0.159160   -1.165907
H     -2.548678    1.179256   -1.680443
H     -3.402028   -0.358288   -1.467436
H     -2.074772   -1.061887   -3.158205
H     -0.891636    0.246200   -2.910775
H      0.001913    1.078582    0.301526
H     -0.159354   -0.441303    1.183981
H     -2.311181   -0.864002    0.477789
H      0.831081    0.156115   -1.517695
H      1.101875   -2.368877   -2.316430
