31

C     -3.577174    0.733091    0.205916
C     -2.312803   -1.375919    0.029324
C     -1.052970   -0.618502   -0.328570
C      1.510750   -0.867571   -0.050901
C      3.186284    1.238340   -0.718444
C     -3.546450   -0.632348   -0.465681
C      0.122832   -1.354403    0.182385
C      3.288352    0.694787    0.687247
C      1.873301    0.228959    0.936926
C      1.760438    1.645779   -0.784182
O     -3.436819   -0.469850   -1.857609
O     -0.044439   -2.384252    0.811187
O      4.207616   -0.340679    0.801966
O      1.160990    2.144832   -1.763871
O      1.148916    1.384360    0.454518
H     -4.622646    0.949361    0.561610
H     -3.243183    1.504796   -0.497841
H     -2.914030    0.757913    1.095997
H     -2.342978   -1.487461    1.123296
H     -2.304764   -2.357992   -0.469006
H     -1.119536    0.374144    0.206858
H     -1.007981   -0.424671   -1.424003
H      2.227365   -1.717479    0.092536
H      1.596810   -0.520814   -1.098463
H      3.409610    0.438946   -1.469181
H      3.864307    2.105000   -0.874821
H     -4.451791   -1.179618   -0.202849
H      3.529696    1.530588    1.383884
H      1.636407   -0.012901    1.966661
H     -2.990230    0.414978   -1.981395
H      4.444121   -0.401413    1.767970
