31

C      4.261063   -0.236822   -0.934574
C      2.275487   -0.087597    0.566481
C      1.356770   -0.483708   -0.530493
C     -0.977967   -0.485911    0.587295
C     -4.332785    0.072140    0.201639
C      3.470890    0.629419    0.012432
C      0.140225   -1.199453   -0.024030
C     -3.033534    0.793820    0.529528
C     -1.971563    0.116893   -0.342719
C     -4.038731   -0.334386   -1.218930
O      4.293721    1.080981    1.061078
O      0.079466   -2.412271   -0.122768
O     -2.735212    0.722229    1.876619
O     -4.800176   -0.296322   -2.215155
O     -2.697790   -0.765650   -1.135854
H      5.156872    0.368445   -1.267502
H      4.596072   -1.138482   -0.374961
H      3.660727   -0.470533   -1.809822
H      1.813795    0.593984    1.309600
H      2.640856   -0.957889    1.166356
H      1.908549   -1.180187   -1.206031
H      1.062107    0.380274   -1.165268
H     -1.523642   -1.170776    1.303493
H     -0.619343    0.354697    1.250587
H     -5.220840    0.716620    0.283434
H     -4.390422   -0.844082    0.794299
H      3.128703    1.530297   -0.558809
H     -3.154124    1.851478    0.245108
H     -1.506996    0.887883   -1.012893
H      4.298150    2.064813    1.072052
H     -3.140330   -0.099907    2.282502
