25

C      4.206597   -0.207113   -0.754247
C      0.244414    1.081167    0.173880
C     -0.483565   -1.053134    0.935922
C      0.607074   -0.180230    0.374208
C     -1.156088    1.425381    0.530500
C     -1.602731   -0.915165   -0.068766
C     -2.182616    0.457241    0.044195
C      1.928414   -0.643623    0.073114
O     -1.453002    2.710714    0.068104
O     -2.554736   -1.918397    0.067577
O     -2.737849    0.873463   -1.178550
O      2.258711   -1.845476    0.268793
O      2.870812    0.202255   -0.435116
H      4.220616   -1.268391   -1.060739
H      4.543729    0.455499   -1.572784
H      4.831413   -0.094773    0.156118
H      0.945609    1.821521   -0.232535
H     -0.145089   -2.079209    1.080678
H     -0.806419   -0.564284    1.890345
H     -1.174159    1.455554    1.660037
H     -1.130231   -0.981864   -1.092240
H     -3.060614    0.390843    0.750209
H     -2.219150    3.085380    0.574422
H     -2.362488   -2.605499   -0.595557
H     -3.588653    0.398139   -1.282983
