25

C     -1.410224    2.766177   -0.723883
C     -1.851715   -1.846704    0.587877
C     -1.102157    1.825983    0.131023
C     -1.814590   -0.371220    0.795391
C      1.167115    0.117309    0.889885
C      1.041377   -0.456058   -1.388553
C      2.496648   -0.214898    0.911000
C      2.380559   -0.791835   -1.371642
C     -1.022120    0.371678   -0.246314
C      0.403479    0.007162   -0.255061
C      3.135578   -0.678929   -0.224555
Cl     4.845162   -1.106276   -0.198033
H     -1.447877    3.791808   -0.377196
H     -1.624301    2.541812   -1.752720
H     -2.718056   -2.246742    1.192335
H     -2.067532   -2.128259   -0.452874
H     -0.958523   -2.369146    1.007961
H     -0.884923    2.043202    1.169857
H     -1.383782   -0.132887    1.776539
H     -2.864421    0.018767    0.730842
H      0.723527    0.479985    1.830724
H      0.484319   -0.565381   -2.332844
H      3.087198   -0.122743    1.822669
H      2.859552   -1.157227   -2.288906
H     -1.474294    0.224425   -1.233520
