31

C      3.485409    0.299262    1.371983
C     -0.845165    2.415157   -1.558395
C      3.391834   -0.214096   -0.063139
C     -0.345864    1.660001   -0.593884
C      2.109782    0.235334   -0.700286
C     -3.690306   -1.553140    1.317431
C     -3.449446   -1.846928   -0.027829
C     -2.863010   -0.710314    2.022659
C      0.914804   -0.285763    0.067004
C     -2.347930   -1.254452   -0.612240
C     -1.769311   -0.132166    1.413290
C     -0.359604    0.185448   -0.601775
C     -1.507091   -0.410243    0.068843
H      4.560762    0.485059    1.648877
H      3.126671   -0.477614    2.064793
H      2.950073    1.257240    1.495059
H     -0.780657    3.492374   -1.448439
H     -1.312151    1.984548   -2.446323
H      4.224039    0.269910   -0.610785
H      3.498929   -1.317865   -0.072649
H      0.100093    2.158462    0.252950
H      2.051602   -0.193056   -1.714804
H      2.117330    1.341510   -0.758407
H     -4.550221   -2.009057    1.792699
H     -4.101850   -2.501582   -0.555205
H     -3.021791   -0.461881    3.066978
H      1.001232   -1.390586    0.085372
H      0.966788    0.075463    1.106934
H     -2.146352   -1.477081   -1.671319
H     -1.082687    0.530802    1.893468
H     -0.325913   -0.154746   -1.651615
