21

C      2.375703   -0.194277   -0.317265
C     -1.551914   -1.516245   -0.835840
C     -0.240757   -1.349805   -0.635749
C      1.109712    0.637435   -0.356949
C     -2.296690   -0.499476   -0.117561
C     -1.313321    0.546815    0.278890
C      0.001716   -0.198367    0.240189
O      1.320052    1.812427    0.359764
O     -3.518456   -0.492109    0.125848
O     -1.627351    0.939332    1.576522
O      0.338249   -0.530968    1.532860
H      2.981547   -0.056831   -1.235471
H      2.954720    0.117731    0.577855
H      2.171338   -1.276319   -0.184988
H     -2.040936   -2.285927   -1.440201
H      0.491117   -2.004283   -1.083557
H      0.852709    0.840276   -1.417998
H     -1.332903    1.429545   -0.364517
H      1.399926    2.562772   -0.289448
H     -2.579626    1.207936    1.564872
H      0.505166    0.310336    2.022747
