20

C      2.461593    0.133348   -0.464803
C      1.302494   -0.751707   -0.016864
C     -0.890532   -0.651921    1.356330
C      0.317861    0.044264    0.806522
C     -1.579882   -0.055466   -0.967730
C     -0.991522    0.446479    0.261426
N     -1.538457    1.708278    0.758821
O     -2.331275    0.721033   -1.671213
O     -1.420904   -1.316186   -1.498235
H      3.427188   -0.159249    0.028714
H      2.284440    1.189321   -0.103694
H      2.635847    0.110412   -1.543715
H      1.736105   -1.551310    0.614062
H      0.840816   -1.188271   -0.919340
H     -1.284672   -0.353322    2.357708
H     -1.051487   -1.697889    1.054206
H      0.804452    0.747188    1.516703
H     -0.827649    2.203863    1.328692
H     -1.751523    2.260944   -0.105683
H     -2.142894   -1.839809   -1.995708
