62

C     -0.965050    2.439902   -0.386522
C      6.424401    1.715955    3.351332
C     -8.649601   -0.795637    2.187224
C     -7.571738   -0.159215    2.773685
C     -8.492223   -1.261554    0.920976
C     -6.373990    0.008000    2.119095
C     -7.274890   -1.094553    0.248549
C     -4.911702   -0.262867    0.170855
C      4.488947   -1.813264    0.565115
C      4.657196   -1.265255   -0.808208
C     -4.650088   -0.673282   -1.053272
C      2.997605    0.110715    1.142816
C      0.060152   -0.267223   -0.940912
C      0.526378    2.073669   -2.375434
C      2.174704   -2.067637   -2.392105
C     -0.841923    1.873549   -1.773311
C     -6.191132   -0.464637    0.814061
C      4.120128   -0.785794    1.587940
C      3.636483   -0.302135   -1.254730
C      3.176537    0.682414   -0.220966
C     -1.094160    0.362525   -1.691836
C     -3.348494   -0.458058   -1.683538
C      5.321919   -0.032624    2.003467
C      2.348331   -0.878163   -1.723767
C      1.375206    0.213439   -1.469217
O     -3.184810   -0.881144   -2.851718
O      6.443572   -0.303249    1.501471
O      5.282100    0.987081    2.944490
O      1.122277    0.846431   -2.709823
O      2.014888   -2.091927   -0.932733
O     -2.310083    0.189092   -1.036258
O      1.971921    1.168459   -0.668569
H     -0.148890    3.179043   -0.253625
H     -0.914804    1.673154    0.407305
H     -1.964015    2.924034   -0.298993
H      6.759784    1.256270    4.310116
H      6.209821    2.798577    3.469633
H      7.236011    1.538565    2.617182
H     -9.557596   -0.899075    2.739883
H     -7.694935    0.210912    3.777991
H     -9.326671   -1.761999    0.448211
H     -5.581752    0.517511    2.651112
H     -7.193844   -1.481542   -0.759269
H     -4.108779    0.247026    0.694333
H      5.485418   -2.242388    0.880070
H      3.794026   -2.703398    0.584454
H      4.646391   -2.142816   -1.518432
H      5.682743   -0.823616   -0.945515
H     -5.420951   -1.181664   -1.601452
H      2.048781   -0.416362    1.232868
H      2.965741    0.970177    1.863744
H      0.009219   -1.372945   -1.163553
H     -0.071587   -0.164781    0.138139
H      1.210152    2.632704   -1.702062
H      0.468023    2.688416   -3.317546
H      3.003864   -2.710078   -2.702290
H      1.222309   -2.313144   -2.933298
H     -1.610101    2.324839   -2.449892
H      3.745525   -1.342112    2.494445
H      4.073170    0.304527   -2.097810
H      3.899059    1.550329   -0.226603
H     -1.148975   -0.073178   -2.697303
