57

C     -7.237083   -1.093915   -0.208838
C     -7.218351    0.219507   -0.966893
C     -6.657573    1.328532   -0.144851
C     -5.211909    1.066548    0.327363
C     -4.364899    0.913366   -0.856318
C     -2.925775    0.713586   -0.777865
C     -2.277352   -0.410355   -0.128667
C     -2.451043   -0.631755    1.340814
C     -1.601231   -1.879495    1.683697
C      2.007050   -0.418417    1.279409
C      2.157020   -0.472802   -0.027271
C      7.269984    1.559933    0.310454
C      6.661655    1.010535   -0.935165
C     -0.165147   -1.657378    1.355476
C      0.666244   -0.631746    1.916061
C      3.348398   -0.296111   -0.793082
C      5.160622    1.270139   -0.941161
C      5.682763   -1.015533   -0.720827
C      4.677003   -0.014688   -0.272201
N      6.747303   -0.421835   -1.071971
O      8.633986    1.251354    0.385354
O      3.227775   -0.396904   -2.067978
O      4.676318    1.351111   -2.232381
O      5.528617   -2.405542   -0.767563
O      4.791571    0.064041    1.093243
O      0.691484   -1.970169    2.556514
H     -8.143841   -1.672028   -0.456174
H     -6.372403   -1.732662   -0.463595
H     -7.195323   -0.881952    0.869457
H     -8.308435    0.477836   -1.130528
H     -6.782056    0.051514   -1.944870
H     -6.727217    2.287778   -0.656909
H     -7.257154    1.370776    0.799792
H     -5.347408    0.179509    0.980553
H     -4.931602    1.980019    0.893573
H     -4.537680    1.843765   -1.496137
H     -4.858736    0.115595   -1.513328
H     -2.545804    0.736561   -1.863702
H     -2.406536    1.664140   -0.383001
H     -1.146473   -0.293363   -0.262405
H     -2.451955   -1.407122   -0.619743
H     -3.481807   -0.793893    1.675117
H     -2.065081    0.232331    1.933394
H     -1.801959   -2.055783    2.763471
H     -2.011606   -2.758875    1.146106
H      2.831141   -0.220340    1.924290
H      1.202073   -0.687036   -0.559288
H      6.740295    1.314164    1.227388
H      7.241868    2.686555    0.232771
H      7.103865    1.447020   -1.859002
H      0.249242   -2.284755    0.525014
H      0.305163    0.141772    2.591423
H      4.917277    2.162825   -0.367687
H      9.200839    1.948407   -0.009186
H      5.368817    0.956000   -2.845354
H      6.299071   -3.029108   -1.004042
H      5.095991   -0.811657    1.436490
