62

C     -4.566957    2.641093    2.610541
C     -4.024314   -0.463906   -1.194562
C     -0.684109    3.110702   -0.496526
C      1.516932    0.306304    1.871004
C      2.634600   -0.306685    2.521013
C      0.653509   -0.317000    1.090929
C      3.973438    0.178161    2.101238
C      0.776284   -1.748354    0.814391
C      4.279692    1.618868    2.210938
C      2.083841   -3.626341   -2.073935
C      1.374237   -2.719608   -3.097459
C     -4.202613    1.133847    0.693177
C     -2.631878    2.834424    1.017949
C     -0.175072   -3.799243   -1.708590
C     -3.782142    2.200326    1.419816
C     -3.487747    0.691910   -0.431175
C     -1.921903    2.412552   -0.080287
C      1.091788   -3.492659   -0.932550
C     -0.045139   -2.606338   -2.646381
C      0.939091   -2.001811   -0.669988
C      3.566171    2.533932    1.321984
C     -0.183857   -1.524077   -1.536290
C     -2.337589    1.314912   -0.842625
N     -0.169293   -0.245512   -2.038621
O      2.967523    2.099806    0.306386
O      3.497197    3.905232    1.524163
O     -0.888609    2.084269   -2.835688
O     -2.397566    0.328722   -3.317766
S     -1.438534    0.782389   -2.202044
H     -3.906214    3.122682    3.377734
H     -5.136980    1.779522    3.038168
H     -5.323162    3.422828    2.344949
H     -4.841454   -0.127914   -1.873822
H     -3.271839   -1.069706   -1.704394
H     -4.496278   -1.145435   -0.424264
H     -0.848201    3.834391   -1.298008
H     -0.291897    3.679255    0.396919
H      0.086760    2.347031   -0.705264
H      1.308220    1.389485    2.062921
H      2.562921    0.041550    3.634961
H      2.605509   -1.411653    2.673460
H     -0.188416    0.256281    0.632949
H      4.165007   -0.098797    1.009148
H      4.806443   -0.365129    2.651518
H     -0.140911   -2.289741    1.190695
H      1.626544   -2.269647    1.281626
H      4.144442    2.005201    3.255528
H      5.390261    1.728238    2.000975
H      2.005442   -4.648527   -2.457829
H      3.083912   -3.277025   -1.834434
H      1.494644   -3.077927   -4.119052
H      1.928213   -1.747138   -3.032151
H     -5.116339    0.621673    1.004028
H     -2.288181    3.680476    1.584344
H     -1.061144   -3.726154   -1.056117
H     -0.122247   -4.755306   -2.255107
H      1.271454   -4.105280   -0.078415
H     -0.814694   -2.566438   -3.385286
H      1.878016   -1.504490   -0.984982
H     -1.155756   -1.798884   -1.081585
H      0.722576    0.256087   -1.745887
H      3.506370    4.494578    0.683980
