82

C     -4.309337    2.018448   -2.512075
C     -4.672561    2.756887   -0.225928
C      2.654703   -1.177340   -2.024095
C      5.424572   -0.816752   -0.630505
C     -0.716800    1.052040    1.268586
C      0.044886   -2.184433   -0.597041
C     -1.406478    0.543000   -1.502141
C      0.015931    0.396454   -1.880841
C     -5.573471   -0.013341    0.040392
C      2.718964   -1.430682    0.953127
C      3.504720    2.192614   -0.747193
C      2.945166    1.206774   -1.743520
C      1.254512   -1.293117    1.300659
C     -5.049841   -0.207974    1.468722
C     -1.387108   -1.181396    1.907307
C     -2.789588   -0.893027    2.303780
C      5.103694    0.016752    1.608183
C     -4.434080    1.695544   -1.242106
C     -4.334292    0.258225   -0.824131
C     -1.902956   -0.342292   -0.394290
C      3.125663   -0.178047    0.237461
C      0.946018    0.151325   -0.726812
C      4.773836    1.556774   -0.221505
C     -3.191643    0.129699    0.144232
C     -3.925649   -2.228406    0.646759
C      2.381650   -0.029354   -1.095204
C      4.572536    0.102642    0.171973
C     -0.902323   -0.351053    0.751163
C      0.380818   -0.913945    0.164895
C     -3.708397   -0.876708    1.135853
O      6.450103    0.443963    1.542158
O      5.214841    2.352462    0.831106
O     -3.720963   -2.705674   -0.485387
O     -4.448543   -3.154087    1.578752
H     -4.379109    3.043110   -2.815327
H     -4.137737    1.255782   -3.244159
H     -5.492555    2.551386    0.465733
H     -3.768111    2.990880    0.376258
H     -4.930382    3.704380   -0.745612
H      2.993674   -2.096383   -1.547699
H      3.466309   -0.914293   -2.769842
H      1.801135   -1.453513   -2.673775
H      5.106035   -1.861456   -0.445385
H      5.566890   -0.561150   -1.683705
H      6.471813   -0.771723   -0.200347
H     -0.868025    1.840438    0.535559
H      0.262825    1.170437    1.813142
H     -1.482045    1.241535    2.078967
H      0.934808   -2.882515   -0.603390
H     -0.273893   -2.011068   -1.629284
H     -0.754866   -2.777043   -0.106467
H     -1.719048    1.587066   -1.290692
H     -2.023128    0.255300   -2.408355
H      0.124859   -0.316123   -2.711861
H      0.306324    1.397347   -2.324112
H     -6.064560   -0.966474   -0.311869
H     -6.330684    0.769249   -0.037582
H      3.250404   -1.434768    1.936195
H      2.968485   -2.364195    0.464710
H      2.806671    2.507956    0.023083
H      3.848039    3.075180   -1.363058
H      3.824288    0.907069   -2.390120
H      2.286600    1.748220   -2.410090
H      1.177615   -0.610952    2.176638
H      0.926649   -2.301785    1.676257
H     -5.735912   -0.871690    1.989204
H     -4.845046    0.759848    1.917081
H     -1.257442   -2.254766    1.794210
H     -0.741700   -0.888461    2.789593
H     -3.135503   -1.693094    2.996589
H     -2.932818    0.055671    2.868215
H      4.555130    0.629273    2.314598
H      5.204134   -1.068881    1.906224
H     -4.277735   -0.396673   -1.691208
H     -2.007051   -1.340946   -0.818975
H      2.687615    0.659556    0.868973
H      0.916976    1.105713   -0.115462
H      5.561550    1.602363   -1.002008
H     -3.095964    1.098647    0.703453
H      7.027808   -0.058008    2.139587
H      5.574302    3.180161    0.421899
H     -4.436205   -4.136583    1.399520
