37

C     -3.550775    1.521463    0.057241
C      4.531175   -0.177517    2.032698
C      3.188009   -0.406014    2.106393
C      5.110051    0.202001    0.855519
C     -1.482850   -0.031267   -2.394805
C     -0.130738    0.189089   -2.428121
C     -3.445029   -0.699376   -0.940167
C     -3.140903   -0.463952    1.544943
C     -3.843953    0.057835    0.309083
C     -2.009803   -0.418264   -1.185093
C      2.420245   -0.249748    0.979348
C      0.681741    0.041086   -1.326139
C      4.327373    0.360671   -0.290672
C     -1.818586   -1.074304    1.175231
C     -1.185533   -0.575905   -0.045365
C      2.973388    0.136468   -0.241074
C      0.161314   -0.348148   -0.095614
C      2.125037    0.290610   -1.410188
C      0.986799   -0.501903    1.078085
O      4.959191    0.738858   -1.428994
O     -1.224684   -1.964247    1.814157
O      2.581485    0.639471   -2.530220
O      0.542402   -0.832042    2.172969
H     -4.286629    1.906892   -0.666962
H     -2.500873    1.596134   -0.348863
H     -3.614049    2.120687    1.000060
H      5.154324   -0.301450    2.935679
H      2.734028   -0.711706    3.062369
H      6.179327    0.386310    0.786888
H     -2.148420    0.071925   -3.219614
H      0.297957    0.493809   -3.378402
H     -4.099458   -0.371306   -1.755343
H     -3.610850   -1.790266   -0.703322
H     -2.898045    0.421723    2.165304
H     -3.743911   -1.144208    2.150000
H     -4.932211   -0.035046    0.494155
H      4.713455    0.921635   -2.331167
