48

C     -3.542737    0.761711    2.046619
C     -3.621560    0.031669    0.721991
C      5.397010    0.312988    0.341861
C      5.658955   -0.983986    0.747914
C     -2.830016    0.089983   -2.228541
C      4.082270    0.699965    0.186334
C      4.621197   -1.845172    0.983909
C     -0.358198   -1.800436    0.843291
C     -2.359907   -0.888597   -1.133082
C     -1.304339   -0.744084    1.179886
C      1.285304    0.296819   -1.111588
C     -1.568399    0.910235   -2.553634
C      0.404818    1.503625   -1.243171
C     -1.756625    1.263655   -0.183844
C      3.037805   -0.200012    0.434008
C      3.283991   -1.481666    0.835036
C      1.062045   -1.366720    0.743405
C     -2.199822   -0.173539    0.153075
C      1.563567   -0.078228    0.352481
N      2.064361   -2.131478    1.004615
N     -0.927153    1.146873   -1.316629
O      1.256958    0.977626    1.196956
H     -4.478000    1.336258    2.169073
H     -2.699420    1.455809    2.112374
H     -3.493437    0.044546    2.892071
H     -4.229015    0.625965    0.043852
H     -4.105571   -0.962482    0.839115
H      6.181860    1.029764    0.143297
H      6.704576   -1.267323    0.864039
H     -3.197240   -0.445748   -3.104715
H     -3.578668    0.792826   -1.883252
H      3.836510    1.713041   -0.131970
H      4.868475   -2.857696    1.302094
H     -0.456796   -2.636911    1.613044
H     -0.653342   -2.312452   -0.088257
H     -3.170382   -1.665574   -1.098550
H     -1.426586   -1.299339   -1.561552
H     -1.995146   -1.148398    1.993325
H     -0.852830    0.130897    1.730050
H      2.250574    0.553235   -1.645890
H      0.832226   -0.604656   -1.555712
H     -1.878785    1.885944   -3.007877
H     -0.957022    0.318350   -3.246057
H      0.722176    2.078318   -2.143794
H      0.567077    2.189565   -0.367943
H     -1.298204    1.765537    0.661494
H     -2.647037    1.883642   -0.461536
H      1.904480    1.095653    1.932385
