32

C      4.186835    1.102295    0.468030
C     -3.592619    1.152837   -0.029392
C      0.501814   -1.204238   -0.254592
C     -0.931319   -1.482280   -0.734500
C      1.696132    0.960362    0.272269
C      3.007512    0.435809   -0.217187
C     -2.923984   -0.185657   -0.105325
C      0.568913    0.286121   -0.426669
C     -1.534027   -0.111030   -0.690714
C     -2.933789   -0.840367    1.221506
O      3.094473   -0.922085    0.171278
O     -3.497647   -1.957689    1.415846
O     -2.319329   -0.247734    2.311687
O     -0.683307    0.684039    0.068822
H      4.075239    2.201838    0.518061
H      4.356325    0.626895    1.450221
H      5.078116    0.886063   -0.154657
H     -3.341889    1.727158    0.869190
H     -3.377840    1.742546   -0.955371
H     -4.693998    0.975114   -0.044991
H      0.545226   -1.539625    0.786397
H      1.217655   -1.758965   -0.899153
H     -0.858504   -1.802772   -1.777005
H     -1.435266   -2.208367   -0.067797
H      1.670864    0.843719    1.374956
H      1.665894    2.045798    0.048129
H      3.138955    0.542398   -1.310200
H     -3.526306   -0.819411   -0.793141
H      0.638877    0.495275   -1.505481
H     -1.615881    0.356857   -1.692986
H      4.044399   -1.210222    0.200385
H     -2.221523   -0.774682    3.169943
