102

C     -4.564652    2.767373   -2.443334
C     -4.918209    0.737324   -3.600133
C     -0.428598   -5.040753    3.004920
C      1.119561   -3.290514    2.911573
C     -2.531349    3.478450    1.937762
C     -1.612629    2.846126    4.010550
C     -4.866971    3.453979   -3.590448
C     -5.220729    1.421149   -4.747672
C      0.086339   -5.487650    4.197119
C      1.653048   -3.733661    4.122976
C     -3.577524    4.105499    2.603559
C     -2.651066    3.468514    4.671830
C     -3.166016   -2.947720    1.349165
C     -1.812602    1.648382   -2.351404
C     -5.237977   -2.423467    0.350087
C     -0.363075    3.326680   -1.463083
C      1.508631    0.629565    0.372538
C      2.209222   -1.538475   -0.314002
C      8.180333   -0.277610    0.153013
C     -4.577792    1.382263   -2.400740
C      0.059087   -3.931531    2.312336
C     -1.525908    2.835105    2.623664
C     -5.195014    2.792852   -4.743336
C      1.147422   -4.827356    4.773875
C     -3.657571    4.112829    3.978766
C     -4.495671   -3.181452    1.213125
C     -1.068010    2.760291   -2.496348
C      2.500759   -0.198269   -0.182000
C     -2.440277   -1.930963    0.635350
C     -1.944436    0.945412   -1.100625
C      0.315205    0.089268    0.753535
C     -4.552078   -1.442575   -0.340246
C     -0.463093    2.669573   -0.241429
C      1.003330   -2.062287    0.077637
C      7.029238   -0.715296   -0.728743
C     -3.165060   -1.164661   -0.227829
C     -1.231475    1.530696   -0.132302
C      0.029401   -1.224995    0.629908
C     -2.910024   -0.094366   -1.145758
C     -1.044290   -2.037140    1.048578
C     -0.856631    0.956624    1.216018
C      7.404647   -0.398171   -2.156209
C      6.224456   -0.440284   -3.090359
C      5.118530    0.397818   -2.462357
C     -4.317659    0.623929   -1.171949
C     -0.525916   -3.475582    1.026913
C     -0.379901    2.146969    1.971618
C      4.795694   -0.281564   -1.123391
O      9.364554   -0.914696   -0.175246
O     -5.509214    3.462505   -5.932413
O      1.714020   -5.230938    5.980385
O     -4.704390    4.740019    4.656515
O     -5.155694   -4.185013    1.932508
O     -0.955410    3.432325   -3.730545
O      8.292530   -1.406141   -2.571951
O      6.618436    0.142460   -4.287661
O      4.014159    0.504000   -3.270733
O      3.706827    0.367316   -0.563091
O     -5.091947   -0.548223   -1.269416
O      0.112411    2.995475    0.954819
O      0.508887   -3.352209    0.035093
O      5.903082   -0.017675   -0.311899
H     -4.305816    3.298168   -1.533875
H     -4.923466   -0.346525   -3.548155
H     -1.278552   -5.558937    2.530044
H      1.522453   -2.427507    2.407296
H     -2.496641    3.489403    0.853623
H     -0.828133    2.342922    4.571674
H     -4.857768    4.536974   -3.628188
H     -5.482639    0.892207   -5.668042
H     -0.318066   -6.348242    4.701119
H      2.482030   -3.190114    4.541752
H     -4.344717    4.597730    2.026112
H     -2.722324    3.479098    5.756245
H     -2.579165   -3.539833    2.036278
H     -2.295317    1.238267   -3.209347
H     -6.301780   -2.592370    0.221258
H      0.229712    4.222317   -1.589469
H      1.760355    1.656637    0.466915
H      2.960087   -2.212340   -0.744551
H      8.341133    0.817846    0.090701
H      7.949887   -0.474449    1.238766
H      6.937789   -1.806438   -0.630317
H     -2.958377   -0.549932   -2.215751
H     -1.042851   -1.893805    2.237326
H     -1.649416    0.381435    1.662858
H      7.942227    0.549073   -2.188017
H      5.888999   -1.488248   -3.233058
H      5.579048    1.375874   -2.208473
H     -4.459660    1.186553   -0.252600
H     -1.215214   -4.221748    0.694799
H      0.414791    1.910283    2.714355
H      4.704625   -1.353609   -1.296221
H      9.392500   -1.860258    0.123573
H     -4.713487    3.658146   -6.554189
H      1.388754   -4.882688    6.873191
H     -4.601902    5.713277    4.916058
H     -5.249021   -5.117863    1.589920
H     -1.653721    4.155984   -3.891181
H      8.728830   -1.174337   -3.428794
H      6.378265    1.101386   -4.242946
H      3.775596    1.466132   -3.329774
