57

C     -4.275964   -0.182104    2.577012
C     -4.433577    1.189989    2.068267
C      6.527717    0.287358    0.289298
C      6.027919    0.309047   -2.019255
C      7.818476   -0.056182   -0.006260
C      7.325509   -0.034853   -2.284656
C      1.239871    0.907821    0.069710
C      1.252475   -1.549316    0.065609
C     -0.169730    0.907814   -0.352408
C     -0.072832   -1.219281    0.648768
C      4.214049    0.843725   -0.474232
C     -4.594918    2.654901    0.266430
C     -4.893350   -2.287815    1.574236
C     -3.864523   -3.330923   -0.296217
C     -3.200842    2.620887   -1.719579
C      5.623000    0.471698   -0.732148
C     -4.017231   -1.229196    1.524830
C     -3.890041    1.547175    0.762255
C     -4.223508    3.148703   -0.954348
C     -4.829233   -3.333697    0.680633
C     -2.976130   -2.249255   -0.340321
C      3.369655   -0.370198   -0.320694
C     -3.047793   -1.228769    0.543638
C     -2.873357    1.037608   -0.020075
C     -2.071888   -0.147332    0.394502
Br    -5.193794    4.671043   -1.633409
Br    -1.707378   -2.306303   -1.768738
Cl    -5.993125   -4.653187    0.816528
N     -2.565660    1.564209   -1.192740
N      1.975388   -0.301884   -0.065671
N     -0.861729   -0.384959   -0.284842
N      8.199299   -0.211734   -1.272928
O      3.944151   -1.484275   -0.426559
O      9.500248   -0.558291   -1.577793
H     -5.186327   -0.507326    3.117779
H     -3.407937   -0.250682    3.285106
H     -5.530535    1.469645    2.086102
H     -3.977611    1.937216    2.797690
H      6.240230    0.408520    1.326784
H      5.333459    0.449452   -2.827196
H      8.580100   -0.215805    0.757229
H      7.636396   -0.161243   -3.305540
H      1.284154    1.215118    1.157904
H      1.829837    1.704322   -0.446337
H      1.210580   -1.983350   -0.966540
H      1.793759   -2.265426    0.729311
H     -0.217006    1.261274   -1.419978
H     -0.724719    1.649609    0.254052
H     -0.635287   -2.028856    1.093521
H      0.124608   -0.498312    1.503409
H      4.206466    1.371199    0.519165
H      3.805829    1.562584   -1.200870
H     -5.412824    3.093610    0.855633
H     -5.671278   -2.302865    2.350882
H     -3.822645   -4.151899   -0.989552
H     -2.973734    3.072505   -2.671653
H     -1.746668    0.128288    1.467778
