102

C     -2.212079   -1.754433    4.191405
C     -3.412032   -2.280115    2.249622
C     -1.625218   -4.281677   -3.349884
C     -2.006500   -2.157229   -4.367380
C      0.557725    1.840184   -3.712461
C      1.332238    4.063245   -3.275526
C     -2.202448   -3.070242    4.577875
C     -3.408838   -3.633805    2.635205
C     -1.630948   -4.873067   -4.582640
C     -2.013384   -2.743905   -5.606493
C      0.748022    2.097809   -5.070843
C      1.507405    4.280873   -4.622581
C     -4.099132   -0.657020   -1.673926
C     -2.148138    2.686193    2.236260
C     -5.391901    0.072489    0.173623
C     -1.128822    4.536537    1.201811
C      1.328590    0.297317    0.224405
C      1.187035   -2.065271    0.165206
C      5.069666    0.290772    5.184103
C     -2.823156   -1.317373    3.004352
C     -1.816369   -2.895123   -3.235472
C      0.850819    2.825825   -2.817613
C     -2.805407   -4.030878    3.797650
C     -1.826630   -4.097859   -5.718168
C      1.218427    3.302083   -5.545624
C     -5.339786   -0.383504   -1.130606
C     -1.878249    4.060492    2.231701
C      1.853037   -0.917131    0.576697
C     -2.919080   -0.478709   -0.934108
C     -1.696644    1.815834    1.264712
C      0.174617    0.379353   -0.516536
C     -4.260096    0.254150    0.918088
C     -0.646393    3.726873    0.197760
C      0.027604   -1.990584   -0.578261
C      4.727732    0.793846    3.773687
C     -3.023246   -0.032488    0.317407
C     -0.945920    2.372748    0.255675
C     -0.467345   -0.763382   -0.911302
C     -2.009437    0.337075    1.306150
C     -1.692676   -0.905433   -1.676579
C     -0.360213    1.718128   -0.910073
C      6.025730    1.102535    3.100780
C      5.973629    1.067597    1.603379
C      5.207984   -0.172856    1.204538
C     -2.783510    0.106822    2.639116
C     -1.803030   -2.381709   -1.848140
C      0.685574    2.675476   -1.360555
C      3.806719    0.014847    1.806429
O      3.900080    0.065386    5.888572
O     -2.796129   -5.385253    4.193220
O     -1.836391   -4.680933   -6.984138
O      1.395597    3.518815   -6.924935
O     -6.531152   -0.545413   -1.833206
O     -2.348716    4.900869    3.225509
O      6.424580    2.396042    3.460582
O      7.277023    1.085739    1.116861
O      5.125778   -0.367022   -0.151900
O      3.009985   -1.010936    1.319290
O     -4.008024    0.679631    2.241446
O      0.109661    3.927346   -0.929625
O     -0.773528   -2.999828   -1.078810
O      3.976791   -0.198088    3.179079
H     -1.743452   -0.982747    4.790976
H     -3.909233   -2.063461    1.314277
H     -1.470346   -4.895081   -2.444878
H     -2.160569   -1.074810   -4.263091
H      0.195642    0.891665   -3.358373
H      1.564780    4.845808   -2.549493
H     -1.728301   -3.388053    5.492019
H     -3.882608   -4.380501    2.020308
H     -1.479942   -5.950075   -4.638640
H     -2.171108   -2.109899   -6.494104
H      0.507980    1.299308   -5.761844
H      1.879781    5.234641   -4.987738
H     -4.102584   -1.011191   -2.689336
H     -2.754342    2.330080    3.054281
H     -6.352956    0.303927    0.652379
H     -0.895960    5.593541    1.159107
H      1.841666    1.215169    0.556797
H      1.626364   -3.027178    0.459416
H      5.783179    0.957319    5.691061
H      5.584249   -0.696875    5.086010
H      4.165257    1.740905    3.937951
H     -1.144302   -0.294697    1.405522
H     -1.654097   -0.299406   -2.574373
H     -1.179436    1.585869   -1.662769
H      6.781341    0.391594    3.457813
H      5.449249    1.943465    1.166984
H      5.647717   -1.043416    1.739751
H     -2.220621    0.657167    3.406388
H     -2.752159   -2.774613   -1.374311
H      1.632585    2.523993   -0.834164
H      3.518012    1.036799    1.574217
H      4.157309    0.052120    6.857979
H     -3.517901   -5.791674    4.762296
H     -1.700075   -5.669428   -7.054787
H      0.652461    3.893792   -7.498540
H     -7.069505   -1.388949   -1.850457
H     -1.802763    5.088973    4.080713
H      7.366754    2.567666    3.196412
H      7.483982    1.942031    0.646549
H      5.022472    0.524558   -0.587119
