31

C      2.194549    1.594686   -0.968044
C     -0.176967   -1.364285   -1.342890
C      1.537698   -1.061527    1.655811
C      2.278578   -0.165615    0.723745
C     -2.095073    1.639239   -0.076942
C     -0.697795    1.538696   -0.673839
C      0.361448   -1.713970    1.007536
C     -1.868889   -0.934806    0.351583
C      1.534471    0.664093   -0.009844
C     -2.632656    0.275896    0.022377
C      0.072764    0.585675    0.198021
C     -0.399773   -0.830457    0.060444
O     -3.843460    0.132442   -0.191302
H      3.081414    1.115656   -1.408503
H      2.517852    2.540712   -0.460021
H      1.500002    1.875601   -1.792600
H     -0.478585   -2.437705   -1.325721
H     -0.797205   -0.857317   -2.091897
H      0.888278   -1.297600   -1.608462
H      1.249017   -0.509372    2.590248
H      2.230312   -1.867818    2.003271
H      3.355506   -0.211592    0.670536
H     -1.953581    2.124859    0.923843
H     -2.736299    2.277956   -0.708101
H     -0.238382    2.526865   -0.610734
H     -0.820422    1.169139   -1.711535
H      0.716160   -2.653344    0.500187
H     -0.323507   -2.077409    1.825250
H     -2.285685   -1.782781   -0.232365
H     -2.051182   -1.187086    1.425632
H     -0.118588    0.891168    1.254316
