33

C      5.002800    1.011518    0.554348
C      1.278895   -0.999757    0.623975
C      0.966637   -0.504954   -1.661299
C      2.513452   -0.336334    0.612524
C      2.188346    0.159569   -1.700261
C     -0.766822   -1.775930   -0.474064
C     -2.823848    0.776468    1.137498
C      0.507000   -1.084552   -0.508448
C      2.953941    0.237632   -0.556201
C     -1.950754   -0.949290   -0.127065
C     -3.371860    0.865717   -0.271675
C     -2.228940    0.188583   -1.043149
N     -1.909595   -0.346145    1.163409
O     -4.544046    0.119372   -0.372265
O     -1.220199    1.114395   -1.128030
O      4.189266    0.903257   -0.573838
H      4.652687    1.785967    1.273934
H      5.126949    0.072588    1.123560
H      6.023917    1.315856    0.235746
H      1.006360   -1.423170    1.582691
H      0.413032   -0.526409   -2.610242
H      3.145279   -0.250459    1.482718
H      2.539718    0.610538   -2.608832
H     -0.773191   -2.673791    0.194402
H     -0.952866   -2.201142   -1.503180
H     -3.691426    0.625804    1.811250
H     -2.304879    1.743780    1.344229
H     -2.848142   -1.623875   -0.151155
H     -3.498317    1.912051   -0.610578
H     -2.658635   -0.097056   -2.021131
H     -0.953264   -0.043737    1.458133
H     -4.751239   -0.368989    0.455151
H     -1.260256    1.762498   -0.407342
