39

C     -2.097149   -1.596530   -1.474762
C     -1.131344   -2.368352   -0.569403
C     -1.385892   -0.281102   -1.767381
C      2.731540    0.894852   -0.793375
C      3.572282   -0.123051   -0.451818
C     -1.111306   -1.634297    0.748732
C     -0.825722    0.507574    1.903762
C     -0.990250    1.958398    1.833277
C      0.562593    2.011191   -0.864471
C      1.717490   -1.212684    0.584273
C      1.382227    0.869373   -0.451305
C      3.052815   -1.189482    0.246830
C     -1.378123    0.464584   -0.465177
C      0.843555   -0.194512    0.250649
C     -0.883709    1.873694   -0.580738
C     -0.595833   -0.221758    0.615598
N     -1.269490    2.569465    0.595869
O      3.922812   -2.238549    0.597994
H     -2.340933   -2.152078   -2.383054
H     -2.996389   -1.323817   -0.875150
H     -1.517551   -3.379772   -0.377910
H     -0.135530   -2.368601   -1.045946
H     -1.932542    0.324606   -2.502982
H     -0.356149   -0.543178   -2.097527
H      3.154489    1.738096   -1.348791
H      4.622399   -0.132121   -0.702515
H     -0.632082   -2.203987    1.558238
H     -2.193391   -1.532940    1.057424
H      0.032070    0.216559    2.579242
H     -1.720413    0.041897    2.412611
H     -1.794964    2.294323    2.554785
H     -0.060891    2.450263    2.249914
H      0.772968    2.192345   -1.956168
H      0.969262    2.925828   -0.354841
H      1.354708   -2.051280    1.122543
H     -2.438036    0.516830   -0.115268
H     -1.445001    2.338657   -1.443837
H     -0.979040    3.574179    0.598342
H      3.520522   -3.014624    1.112337
