56

C      5.378730   -3.168346   -2.819443
C      3.966432    2.678071    1.207218
C     -4.403640   -2.557211    2.328289
C     -4.707025    4.246742   -0.164588
C      3.645397   -1.638801   -1.246220
C      3.156016    0.263612    0.076514
C     -3.428098   -0.513395    0.725736
C     -3.497247    1.690024   -0.104881
C      0.354676    0.512251   -1.525510
C     -0.321933   -0.693592    1.026944
C      2.748321   -0.927520   -0.479653
C     -2.889633    0.455403   -0.094620
C      0.344984   -0.935622   -1.188091
C     -0.911888   -1.035265   -0.318526
C      4.928449   -1.223015   -1.486999
C      4.454750    0.699607   -0.158293
C     -4.544113   -0.283344    1.526243
C     -4.606110    1.959452    0.673898
C      5.348683   -0.023296   -0.930834
C     -5.125204    0.967543    1.488125
C      1.383308   -1.406840   -0.233131
C     -1.713105    0.105827   -0.892819
O      6.643513    0.420756   -1.159312
O     -6.256778    1.251514    2.279399
O      5.838771   -1.939440   -2.261714
O      4.846541    1.897481    0.407721
O     -5.046076   -1.296332    2.335332
O     -5.216207    3.218354    0.656019
O      0.949573   -1.215719    1.053980
O     -0.729110    1.105324   -0.876386
H      6.200919   -3.749497   -3.280180
H      4.614981   -2.977446   -3.617367
H      4.904942   -3.813361   -2.070410
H      4.397403    3.665994    1.439954
H      3.708366    2.092202    2.106532
H      3.067733    2.864264    0.576783
H     -4.337563   -2.986418    1.295492
H     -3.353753   -2.405797    2.696305
H     -4.957555   -3.294261    2.933510
H     -3.780072    4.631671    0.283039
H     -4.535030    3.855179   -1.196984
H     -5.432665    5.083506   -0.192134
H      3.318981   -2.588578   -1.688922
H      2.480871    0.864979    0.698968
H     -2.986630   -1.521913    0.776034
H     -3.066356    2.447852   -0.754640
H      0.085274    0.581814   -2.623842
H      1.311992    1.030773   -1.358562
H     -0.203749    0.430035    1.028120
H     -0.950662   -0.928504    1.883618
H      0.248086   -1.597392   -2.080039
H     -1.384223   -2.007223   -0.378565
H      1.399936   -2.542013   -0.360102
H     -1.969741   -0.143573   -1.942215
H      7.252420   -0.145075   -1.729683
H     -6.625882    0.538554    2.861716
