36

C     -5.664482    0.049584    0.065860
C      4.742410   -0.502228   -0.137214
C     -4.286839   -0.415102   -0.374499
C     -3.324850   -0.149691    0.742365
C     -1.921578   -0.560188    0.445557
C     -1.409815    0.177158   -0.746702
C      0.002989   -0.179734   -1.114365
C      0.982634    0.114145   -0.002021
C      2.349905   -0.291274   -0.509659
C      3.568530    1.438452    0.780408
C      3.440754   -0.052741    0.505756
O      4.657226    1.627815    1.645248
H     -5.736859    1.155282   -0.038339
H     -5.920479   -0.275187    1.078497
H     -6.376367   -0.353638   -0.712165
H      5.593813   -0.128824    0.436269
H      4.708969   -1.612274   -0.205145
H      4.728840   -0.144829   -1.200757
H     -4.054567    0.116496   -1.303918
H     -4.308644   -1.502517   -0.624646
H     -3.361746    0.925620    0.987979
H     -3.717036   -0.691710    1.644114
H     -1.311964   -0.389952    1.347965
H     -1.918056   -1.673778    0.277516
H     -2.048356   -0.078804   -1.617055
H     -1.548684    1.261108   -0.563606
H      0.052322   -1.240569   -1.360035
H      0.291860    0.425273   -1.995004
H      0.764388   -0.414500    0.925449
H      1.034224    1.215308    0.201281
H      2.561587    0.385064   -1.383727
H      2.327962   -1.312530   -0.888567
H      3.762683    2.006255   -0.131092
H      2.656678    1.841704    1.264941
H      3.202747   -0.597128    1.424366
H      5.479800    1.887705    1.134948
