36

C      5.376011    1.125820    0.454359
C     -4.826194   -0.627775   -0.091622
C      3.904352    1.357073    0.235986
C      3.290219    0.060521   -0.215591
C      1.798047    0.197052   -0.462373
C      1.287220   -1.143837   -0.905868
C     -0.191296   -1.144049   -1.185354
C     -1.001742   -0.760438    0.046598
C     -2.434206   -0.809934   -0.402135
C     -3.373499    0.971275    0.995059
C     -3.459504   -0.490640    0.627845
O     -2.221856    1.307393    1.667870
H      5.787474    0.356491   -0.246885
H      5.964227    2.045087    0.261206
H      5.596736    0.742802    1.474100
H     -4.734017   -1.363378   -0.931968
H     -5.146015    0.322168   -0.518935
H     -5.592897   -1.005886    0.594081
H      3.394921    1.660462    1.171432
H      3.791908    2.138455   -0.541684
H      3.427971   -0.676948    0.607971
H      3.828165   -0.309706   -1.115054
H      1.347263    0.472762    0.525248
H      1.641280    0.961985   -1.229102
H      1.570781   -1.934011   -0.194365
H      1.793101   -1.384520   -1.865030
H     -0.491248   -2.176558   -1.451000
H     -0.472069   -0.472310   -1.992459
H     -0.886028   -1.532632    0.850431
H     -0.692524    0.221836    0.426926
H     -2.505276   -0.139878   -1.296764
H     -2.580250   -1.852755   -0.811170
H     -3.455515    1.525684    0.012823
H     -4.280186    1.291557    1.554905
H     -3.481598   -1.167881    1.477974
H     -1.973758    2.234714    1.403777
