31

C      3.409103    1.016864    1.038665
C      3.041121   -0.997763   -0.468049
C     -0.605834   -1.462806    0.813651
C     -2.029252    1.369859   -1.315311
C      1.260891    0.638887   -0.119431
C      0.391761   -0.130305   -0.997087
C     -3.174868    0.020368    0.354325
C      2.494725    0.235116    0.132414
C     -0.899982   -0.588604   -0.369517
C     -1.811747    0.562618   -0.028849
O     -3.118158   -0.740084    1.521422
H      3.135963    2.073471    0.968321
H      4.455342    0.920723    0.643941
H      3.397488    0.597993    2.053566
H      4.134264   -1.094428   -0.289725
H      2.939235   -0.993889   -1.584933
H      2.581878   -1.881611   -0.018294
H     -1.420624   -2.233254    0.953742
H      0.310948   -2.069509    0.674673
H     -0.491248   -0.909680    1.758648
H     -1.167815    1.992744   -1.560998
H     -2.964789    1.952465   -1.143622
H     -2.284472    0.623792   -2.112266
H      0.905956    1.551922    0.337730
H      0.183123    0.491976   -1.903594
H      0.921891   -1.026897   -1.377812
H     -3.897064    0.844819    0.563809
H     -3.634753   -0.555336   -0.485923
H     -1.425102   -1.206724   -1.131865
H     -1.431556    1.209279    0.758437
H     -3.206422   -0.212004    2.333935
