38

C      4.591631   -0.919240    0.346971
C      3.383329   -1.673984   -0.069745
C      2.215608   -0.722917   -0.443800
C      1.838326    0.127597    0.708369
C     -2.774197    1.924100    0.728951
C     -3.393757    0.622727    0.362545
C      0.780819    1.124707    0.576662
C     -1.381636    2.099299    0.240354
C     -2.471441   -1.542628   -0.238587
C     -0.797228    0.210025   -1.185447
C     -2.521521   -0.517524    0.859147
C     -1.388867   -1.140581   -1.173104
C     -0.599043    0.761542    0.209086
N     -1.191658   -0.106787    1.189956
O     -0.947458   -1.955601   -1.986287
H      4.683087   -0.988854    1.451680
H      4.651684    0.115135   -0.030430
H      5.496106   -1.464613   -0.053116
H      3.596280   -2.221754   -1.011294
H      2.991104   -2.347168    0.695447
H      2.495859   -0.141753   -1.330408
H      1.420134   -1.494735   -0.680859
H      1.710670   -0.490938    1.660598
H      2.787582    0.706174    0.972899
H     -3.398398    2.736691    0.259226
H     -2.844204    2.053882    1.834341
H     -3.584531    0.599343   -0.721114
H     -4.381641    0.520170    0.869471
H      0.705218    1.704241    1.557329
H      1.162833    1.943788   -0.120506
H     -0.880142    2.838422    0.898661
H     -1.325247    2.539053   -0.790094
H     -2.320589   -2.573995    0.151734
H     -3.433836   -1.472494   -0.809825
H     -1.478482    0.909296   -1.743341
H      0.174141    0.156231   -1.676541
H     -2.975559   -0.940516    1.793442
H     -0.594977   -0.976341    1.222436
