18

C     -1.914909   -0.765543    0.124494
C     -0.271018    1.128871    0.238958
C      0.959928    1.582450   -0.552633
C      0.537476   -1.149567    0.484265
C     -0.526345   -0.284431   -0.161145
C      1.827304   -0.681699   -0.079712
O      2.785708   -1.489573   -0.134328
O      1.968719    0.595230   -0.528103
H     -2.139270   -0.874161    1.196144
H     -2.622939   -0.049336   -0.308788
H     -2.044826   -1.731101   -0.434835
H     -1.099827    1.817849   -0.027492
H      0.012303    1.228510    1.312588
H      1.366654    2.519069   -0.145430
H      0.600789    1.733720   -1.591888
H      0.586941   -0.989850    1.580188
H      0.337765   -2.215782    0.292669
H     -0.364452   -0.374655   -1.264951
