27

C     -2.894167   -0.970945    0.373585
C     -2.972076    1.424362    0.064484
C      1.255950   -1.071698    0.926578
C      1.108800   -0.044736   -1.237384
C     -0.217753   -1.194763    0.780301
C     -0.060455    0.734663   -0.740593
C      3.389846   -0.324335   -0.038034
C     -2.225948    0.150132    0.308214
C      1.913343   -0.500599   -0.075652
C     -0.738514    0.182415    0.471465
O      3.686861    1.051336   -0.128515
H     -3.954329   -0.985323    0.256072
H     -2.346936   -1.902417    0.552061
H     -3.397447    1.429190   -0.943764
H     -3.783426    1.462900    0.804848
H     -2.297233    2.296447    0.172316
H      1.731891   -1.441529    1.820826
H      0.837985   -0.881270   -1.912795
H      1.733473    0.646849   -1.857924
H     -0.669126   -1.636356    1.678971
H     -0.423810   -1.826796   -0.116492
H     -0.776255    0.909346   -1.572067
H      0.321321    1.763260   -0.476903
H      3.879850   -0.806800   -0.897695
H      3.814041   -0.650455    0.933274
H     -0.559195    0.830403    1.375901
H      3.643309    1.356718   -1.073999
