34

C     -3.698340   -0.717811   -0.923529
C      3.994147    0.629203    0.352399
C     -2.679010    2.719671    1.266519
C      0.638637   -3.381061   -1.196211
C     -1.334654   -1.453992   -0.675570
C      1.665362    0.055751    0.997590
C     -0.723538    0.803084    0.746446
C     -2.315727   -0.507283   -0.423086
C      2.570813    0.459200   -0.124367
C      0.276686   -0.107910    0.519137
C     -2.011217    0.622887    0.288464
C     -0.055343   -1.248132   -0.205678
N      2.102207    1.728104   -0.652897
O     -3.029291    1.562542    0.526746
O      0.913532   -2.203968   -0.466893
H     -3.885645   -0.059997   -1.802975
H     -3.858601   -1.765301   -1.255508
H     -4.446187   -0.484716   -0.129804
H      3.987872    0.967801    1.417210
H      4.570512    1.344564   -0.281712
H      4.504822   -0.363091    0.292653
H     -2.160916    2.408851    2.192964
H     -1.983007    3.339696    0.661292
H     -3.596997    3.283454    1.570621
H      1.433556   -4.153925   -0.990911
H     -0.302477   -3.831350   -0.876181
H      0.646665   -3.122382   -2.291119
H     -1.633765   -2.333840   -1.246898
H      1.730168    0.781844    1.843575
H      2.036759   -0.921976    1.415597
H     -0.465098    1.686662    1.308763
H      2.573509   -0.326128   -0.897702
H      2.923766    2.279739   -1.019655
H      1.610802    2.309808    0.060719
