18

C     -2.395405    0.268502    0.799756
C      2.581555    0.066575   -0.002347
C      1.995366   -1.181736   -0.180668
C      1.792853    1.196140    0.048374
C      0.628762   -1.277043   -0.305149
C      0.426836    1.063116   -0.079960
C     -1.652931   -0.295268   -0.394946
C     -0.184389   -0.162510   -0.258037
Br    -2.172779    0.623320   -2.013698
H     -2.917138   -0.572883    1.332524
H     -1.623871    0.642381    1.509651
H     -3.112893    1.035778    0.488278
H      3.652009    0.191932    0.100400
H      2.608524   -2.076423   -0.221791
H      2.265650    2.161990    0.187958
H      0.226712   -2.274800   -0.442112
H     -0.212323    1.954127   -0.041370
H     -1.906538   -1.363197   -0.526864
