21

C      0.694834    1.346623    0.741409
C     -0.594385    1.419616    0.014111
C      1.612259    0.410180   -0.054035
C     -0.273794   -1.007589   -0.588977
C     -1.192927    0.134221   -0.393789
C      0.988049   -0.971001    0.190244
N     -2.289465   -0.246251    0.512988
O      1.880082   -1.918670   -0.255415
H      0.534528    0.909656    1.756917
H      1.126440    2.344257    0.852497
H     -0.458371    2.121256   -0.858491
H     -1.332648    1.946501    0.687601
H      1.446109    0.627197   -1.128041
H      2.647386    0.463788    0.265308
H     -0.798162   -1.974840   -0.334308
H      0.000344   -1.132822   -1.673493
H     -1.714874    0.310222   -1.383171
H      0.834766   -1.095738    1.286103
H     -2.842747   -1.036285    0.072150
H     -1.959307   -0.454748    1.460945
H      1.691883   -2.195572   -1.170553
