85

C     -6.913030    4.608705   -0.881399
C      2.698022    0.902382    3.029521
C     -2.414048   -3.690249   -2.303114
C      4.229968    0.983154   -5.546463
C     -5.982836   -1.465255    4.090210
C     -5.692314   -2.479805    3.220599
C     -5.344352   -0.262163    3.880622
C     -4.810393   -2.300028    2.191986
C     -4.453813   -0.095451    2.838303
C     -4.537143    1.168361    0.000080
C     -2.677155    2.579342    0.365735
C     -5.346087    2.238310   -0.291328
C     -3.452974    3.702966    0.077673
C      2.188476    0.709982    0.082072
C      0.559577    0.370535   -1.599421
C      7.115582   -1.774753    0.038777
C      6.843236    0.078454   -2.221027
C     -4.148378   -1.075745    1.961268
C     -3.217185    1.352026    0.322362
C     -4.791898    3.515079   -0.250946
C      1.887740    0.620538   -1.244409
C      5.870434   -0.902650   -0.129130
C      1.238440    0.563361    1.056747
C     -0.434361    0.210068   -0.652620
C      6.102942    0.313960   -0.957260
C     -2.198770   -2.128360    1.105672
C     -3.262325   -1.055959    0.806769
C     -0.081246    0.310646    0.653905
C     -1.206184   -1.370221    1.910589
C     -1.728389   -2.731891   -0.138930
C      4.946470    0.488706   -3.466725
C      4.178967    0.443668   -2.201211
C     -1.326565    0.101153    1.476290
C     -2.426064    0.126735    0.559142
O      6.639984   -2.924454    0.714040
O      5.358632   -0.593238    1.153116
O      0.053233   -1.898192    1.647947
O     -0.524760   -2.927771   -0.410124
O     -1.319665    0.934168    2.586805
O     -5.546663    4.636295   -0.533979
O      1.472518    0.649324    2.399924
O     -2.684892   -3.105896   -1.068393
O      4.211280    0.008403   -4.524689
O      6.063989   -0.360387   -3.293351
O      2.831752    0.744146   -2.287876
O      4.872454    0.982867   -1.126338
O     -1.795565   -0.054987   -0.742028
H     -7.048366    4.634387   -1.979357
H     -7.377725    5.543506   -0.432777
H     -7.472807    3.785745   -0.394806
H      2.926728    0.008685    3.662884
H      2.531739    1.747037    3.752386
H      3.545049    1.066626    2.361230
H     -1.980413   -2.873705   -2.952387
H     -3.423935   -3.903254   -2.765736
H     -1.822198   -4.600443   -2.288020
H      3.625170    0.582299   -6.391316
H      3.889640    1.947697   -5.172328
H      5.320514    1.014124   -5.883510
H     -6.682064   -1.593664    4.917220
H     -6.201000   -3.445219    3.391069
H     -5.572857    0.562954    4.572265
H     -4.636258   -3.168277    1.537590
H     -3.980203    0.864574    2.716623
H     -4.968295    0.181911   -0.031833
H     -1.644308    2.812048    0.612604
H     -6.401083    2.112194   -0.545921
H     -3.067049    4.704489    0.092752
H      3.215757    0.916356    0.372449
H      0.328672    0.302457   -2.643363
H      7.442568   -2.117820   -0.949906
H      7.876836   -1.282713    0.643431
H      7.240291    1.087644   -2.578080
H      7.737261   -0.514139   -2.044679
H      5.063682   -1.551817   -0.591186
H      6.785502    0.973754   -0.330362
H     -2.636323   -2.954460    1.718692
H     -3.760630   -1.454828   -0.114437
H     -1.377992   -1.484533    3.011755
H      5.289931    1.522363   -3.667564
H      4.135729   -0.706075   -1.908863
H      7.091360   -3.070826    1.558305
H      5.029771   -1.479513    1.514499
H      0.598367   -1.950363    2.497353
H     -0.667702    1.634924    2.433931
