85

C     -5.687440    5.207256   -1.915960
C      1.989383   -1.603676   -3.198303
C     -5.314603   -5.228227   -0.817057
C      6.217539   -2.787296    1.133566
C     -6.240817   -0.385995    3.548713
C     -5.211487    0.484841    3.283569
C     -6.363907   -1.538712    2.812305
C     -4.299559    0.228567    2.296032
C     -5.423155   -1.789320    1.803159
C     -2.162101    2.185698   -0.600918
C     -4.400049    1.499388   -0.533439
C     -2.566297    3.417522   -1.060947
C     -4.813573    2.734554   -0.994370
C      2.025481   -0.524998   -0.666039
C      0.929020    0.281453    1.259620
C      8.698040    2.340102    0.180948
C      7.087158    0.690655    1.836219
C     -4.403877   -0.922832    1.543638
C     -3.092727    1.172360   -0.319169
C     -3.883616    3.697233   -1.258215
C      2.126249    0.015592    0.598202
C      7.256035    2.015814   -0.214771
C      0.812504   -0.800042   -1.276771
C     -0.286485    0.002331    0.636971
C      6.393596    1.708962    0.991208
C     -3.799805   -1.715075   -0.804349
C     -3.439440   -1.186664    0.516615
C     -0.369605   -0.533738   -0.620512
C     -2.315988   -2.026210   -1.253027
C     -4.635942   -2.870423   -0.948760
C      5.363825   -0.710665    1.729183
C      4.610072    0.182469    0.818106
C     -1.744534   -0.666019   -1.020124
C     -2.527246   -0.065339    0.151829
O      8.751159    3.470127    0.962805
O      6.753992    3.105758   -0.925466
O     -1.889785   -3.011843   -0.398744
O     -5.800491   -2.703687   -1.461264
O     -2.028194    0.070998   -2.198659
O     -4.323611    4.932258   -1.719896
O      0.753582   -1.340486   -2.540185
O     -4.349426   -4.182056   -0.600417
O      6.321126   -1.423912    0.995045
O      6.100095    0.067607    2.636805
O      3.288803    0.317852    1.257782
O      5.153711    1.422346    0.579794
O     -1.552949    0.195143    1.120968
H     -5.835889    6.292109   -2.066029
H     -6.061993    4.604301   -2.774709
H     -6.226715    4.934925   -0.969532
H      1.870601   -2.052754   -4.181850
H      2.634203   -0.696323   -3.214523
H      2.537354   -2.324726   -2.546710
H     -5.480679   -5.407981   -1.895710
H     -6.302870   -4.830317   -0.437070
H     -5.108250   -6.112285   -0.216705
H      6.351159   -3.065491    2.198483
H      7.021700   -3.249189    0.527382
H      5.261269   -3.210493    0.758261
H     -6.951428   -0.147579    4.345367
H     -5.118243    1.412330    3.878843
H     -7.172496   -2.225866    3.020663
H     -3.521046    0.959939    2.154853
H     -5.600125   -2.721200    1.282437
H     -1.098621    2.038038   -0.469133
H     -5.139300    0.763700   -0.341661
H     -1.849193    4.218876   -1.288644
H     -5.876953    2.884081   -1.125071
H      2.964284   -0.738116   -1.194290
H      0.947184    0.702813    2.262022
H      9.239742    2.465634   -0.791861
H      9.126209    1.443215    0.645010
H      7.645760   -0.053344    1.235550
H      7.800395    1.160958    2.527577
H      7.247142    1.138932   -0.867274
H      6.366928    2.671641    1.578947
H     -4.070600   -0.957680   -1.570044
H     -2.742836   -1.979524    0.968976
H     -2.378293   -2.316680   -2.312571
H      4.684569   -1.372440    2.294507
H      4.585304   -0.326690   -0.184465
H      8.879928    3.206710    1.902977
H      6.487103    2.883942   -1.852733
H     -1.646988   -3.811351   -0.949682
H     -1.172974    0.388213   -2.596844
