58

C      7.551794    1.571988    0.289420
C      6.720058    1.434814   -0.949109
C      6.245516    0.022480   -1.132400
C      5.405291   -0.476193   -0.002671
C      4.165190    0.380893    0.164962
C      3.302204   -0.097054    1.294156
C      2.809025   -1.500171    1.128712
C      1.983167   -1.667207   -0.111644
C      0.763889   -0.797753   -0.139926
C     -0.134500   -1.109297    1.025610
C     -1.369340   -0.281401    1.062435
C     -2.238586   -0.447111   -0.163864
C     -4.234712    0.009938    1.147090
C     -5.647187    0.482577    1.204427
C     -6.247619    0.056444   -2.506948
C     -3.474632    0.422025   -0.059396
C     -5.553426   -0.031270   -1.167934
C     -6.237089    0.820630   -0.124490
N     -4.195525    0.424895   -1.281394
O     -5.605934   -0.726509   -3.463371
O     -7.620915    0.660552   -0.161343
H      8.434510    2.210531    0.100785
H      6.941865    2.054246    1.080355
H      7.921777    0.583760    0.634339
H      5.863415    2.129281   -0.905182
H      7.371483    1.681241   -1.823575
H      7.109072   -0.659119   -1.274175
H      5.636174   -0.029991   -2.060693
H      5.972060   -0.448229    0.942310
H      5.136139   -1.528728   -0.224664
H      3.554303    0.400577   -0.757112
H      4.511905    1.409736    0.442228
H      2.423705    0.590652    1.342932
H      3.825716    0.022684    2.264373
H      3.682825   -2.179145    1.046664
H      2.274932   -1.802479    2.050472
H      2.620761   -1.398385   -0.979071
H      1.681927   -2.713548   -0.254917
H      0.197544   -1.052695   -1.063911
H      0.993083    0.275955   -0.190571
H      0.376001   -1.006668    2.005234
H     -0.447095   -2.181610    0.965878
H     -1.162648    0.781237    1.248315
H     -1.984100   -0.634030    1.926897
H     -2.524369   -1.479768   -0.353531
H     -1.630841   -0.107841   -1.031711
H     -3.706279    0.452714    2.042626
H     -4.127718   -1.096662    1.267417
H     -6.266560   -0.357836    1.634922
H     -5.799410    1.325812    1.934375
H     -7.288370   -0.321534   -2.440488
H     -6.313105    1.096849   -2.859568
H     -3.100287    1.467530    0.117480
H     -5.625755   -1.088779   -0.843102
H     -5.970063    1.884784   -0.362212
H     -4.073095    1.236785   -1.896341
H     -4.863022   -0.163154   -3.830238
H     -8.033152    1.492558   -0.482457
