44

C      5.936050   -0.060775    0.275592
C      5.805875    1.068465    1.063930
C      4.828976   -0.693810   -0.248629
C      4.532465    1.531847    1.302345
C     -3.854025   -0.267618   -1.222132
C     -4.525252    1.050611   -0.966110
C      1.769828   -1.683913   -1.160710
C      0.516126   -2.255009   -0.591583
C     -3.395061    1.227026    1.300957
C     -0.963428    0.693533    0.982492
C     -1.711027   -1.439693   -0.758643
C     -2.773939   -0.580929   -0.201563
C     -2.318766    0.729046    0.364700
C     -4.634617    1.363343    0.484065
C      3.566984   -0.200282    0.011873
C      2.281850   -0.574806   -0.342194
C      3.398609    0.927721    0.796671
C     -0.057082    0.039558   -0.071797
C      1.360795    0.293856    0.206976
N      2.071266    1.199860    0.896289
N     -0.431984   -1.334103   -0.101971
O     -5.655993    1.715073    1.022877
H      6.929242   -0.435105    0.080505
H      6.695656    1.539895    1.458888
H      4.948130   -1.566600   -0.856645
H      4.429554    2.414151    1.918201
H     -3.314312   -0.171114   -2.207651
H     -4.560186   -1.119142   -1.293673
H     -4.072985    1.888135   -1.543491
H     -5.584614    0.984414   -1.346704
H      2.535641   -2.492216   -1.172245
H      1.601735   -1.401111   -2.219224
H      0.062104   -2.954170   -1.339533
H      0.821202   -2.928889    0.261889
H     -3.602128    0.457260    2.072715
H     -3.120962    2.176557    1.799438
H     -0.937913    0.115267    1.933560
H     -0.584140    1.718894    1.112664
H     -2.036976   -2.514694   -0.645977
H     -1.641725   -1.270936   -1.861887
H     -3.298676   -1.127253    0.635064
H     -2.279791    1.458407   -0.485761
H     -0.376813    0.489282   -1.058354
H      1.640308    1.989971    1.424189
