56

C     -7.061046    2.156220    0.089047
C     -4.278893    1.161071   -0.930008
C     -0.655364   -0.128256   -0.997865
C      5.391338    1.872145   -0.562208
C      4.449752    0.868965   -0.588671
C      0.670603   -0.133162   -0.353260
C     -0.958529   -1.110616   -2.064141
C      6.383645    0.945795    1.416293
C      4.066257   -2.566027    0.319629
C      1.661138   -2.308651   -0.542945
C      2.229967   -0.956950    1.207397
C     -8.136882   -0.505357    2.206724
C     -7.219758    0.864515    0.787791
C      6.357794    1.909173    0.442826
C      3.164153   -2.023727   -0.718181
C      4.493006   -0.090186    0.399405
C      5.445638   -0.068774    1.403213
C     -6.664896   -0.350209    0.610490
C     -5.633958   -0.807661   -0.306587
C     -3.919854   -1.136227   -1.713663
C      3.517614   -1.185693    0.426357
C      7.380709    2.984960    0.475231
F      5.444901   -1.028646    2.350064
F      7.275972    3.617346    1.698510
F      7.118344    3.855649   -0.574528
F      8.627271    2.437909    0.287120
N     -8.152355    0.764732    1.801773
N     -5.522441   -2.149309   -0.634449
N     -4.528697   -2.332755   -1.450117
N     -4.645167   -0.240952   -0.977644
N      1.177391   -1.261331    0.291809
O     -7.269049   -1.154739    1.510227
S     -2.580814   -0.839688   -2.821498
H     -8.011910    2.770717    0.169928
H     -6.936617    2.040677   -1.011764
H     -6.251249    2.792780    0.473966
H     -4.745818    1.743143   -1.727487
H     -4.353923    1.570264    0.083175
H     -3.155176    1.208352   -1.135953
H     -0.804875    0.897037   -1.475759
H     -1.499427   -0.187726   -0.259284
H      5.362468    2.630436   -1.346635
H      3.706724    0.872892   -1.390306
H      0.690192    0.761162    0.361936
H      1.438646    0.122820   -1.176665
H     -0.206827   -1.051193   -2.868370
H     -0.924029   -2.174686   -1.692919
H      7.115927    0.920999    2.228039
H      5.131799   -2.672408   -0.007783
H      3.721270   -3.369324    0.971474
H      1.629549   -3.321690   -0.035256
H      1.260581   -2.389377   -1.547419
H      2.245012   -1.638674    2.089800
H      2.190684    0.089881    1.549733
H     -8.768093   -0.905882    3.001507
H      3.537300   -1.769765   -1.725898
