39

C     -2.500723    3.389333   -0.077400
C      5.212203    2.168558    0.183745
C      5.219095    1.301235   -0.883388
C      4.097986    2.252154    1.006164
C      4.105507    0.517615   -1.123928
C      2.997694    1.447318    0.731044
C     -2.548687   -3.093670   -0.107068
C     -3.484204   -1.962166   -0.538698
C     -0.549487   -2.082834    0.971498
C      2.980804    0.573218   -0.329028
C     -1.964390   -2.555691    1.157081
C     -2.911484   -0.826491    0.284636
C     -0.451446   -1.108379   -0.171467
C     -1.691861   -0.305654   -0.391575
C      1.826130   -0.270476   -0.616507
C     -1.530968    1.122790   -0.032929
O      1.868118   -1.052197   -1.601093
O     -0.531975    1.593339    0.558984
O     -2.541993    2.007026   -0.367140
O     -2.709083   -1.414999    1.498424
O      0.673002   -0.265657    0.134293
H     -3.343517    3.852450   -0.669474
H     -2.605897    3.625799    0.981243
H     -1.575184    3.833334   -0.534405
H      6.071392    2.794493    0.395461
H      6.072980    1.220391   -1.534218
H      4.120278    2.944328    1.839845
H      4.153406   -0.150681   -1.973713
H      2.154069    1.546342    1.397505
H     -1.786712   -3.194036   -0.932601
H     -3.079050   -4.050850   -0.000815
H     -4.506779   -2.205492   -0.172346
H     -3.437619   -1.774658   -1.615663
H     -0.222869   -1.591768    1.931026
H      0.127718   -2.960355    0.810984
H     -1.981269   -3.306085    1.967460
H     -3.643641   -0.000287    0.400927
H     -0.178029   -1.701609   -1.074466
H     -1.903513   -0.315688   -1.502397
