72

C      1.665464    0.615320    2.258218
C     -2.085818    3.078856    1.089618
C     -5.843441   -1.367480    0.397945
C     -5.796021   -1.057176   -2.012367
C     -3.272163    0.260120    1.673729
C      7.250733   -2.609472    1.409450
C     -3.196858   -2.631015    0.216088
C      0.464895   -0.016370    0.070585
C     -3.984477    2.472174   -0.284143
C     -0.553585    1.029334    0.368361
C     -4.818371    1.259268   -0.465507
C      2.849481    0.711323    0.166240
C     -4.107952   -2.445947   -0.957603
C     -2.226517   -1.452377    0.241126
C      4.105970    1.168228    0.813843
C      8.036888   -0.144493   -2.222103
C      5.520103   -0.788805    1.367988
C      1.727958    0.452323    0.789105
C     -2.637111    2.230679    0.255567
C     -1.898717    0.954357   -0.197573
C     -4.031811   -0.010443   -0.693214
C      6.062215    0.269853   -0.424759
C      6.195170    1.109547   -1.507794
C      6.944357   -0.798208   -0.248611
C     -4.933054   -1.173287   -0.763093
C     -2.853927   -0.120147    0.258640
N      5.273808    2.179598   -1.640391
N      7.181442    0.877113   -2.377264
N      7.914559   -0.968987   -1.168056
N      6.584044   -1.442159    0.876837
N      5.197208    0.247003    0.588671
Cl     0.000000    0.000000    0.000000
H      0.754842    0.105575    2.647014
H      1.687662    1.696664    2.496224
H      2.510090    0.112268    2.776242
H     -2.669713    3.974440    1.368339
H     -1.107297    2.974582    1.523331
H     -6.389955   -2.341914    0.225948
H     -6.669830   -0.602289    0.408744
H     -5.360503   -1.466811    1.371470
H     -6.373945   -2.013097   -2.074902
H     -5.176340   -1.015510   -2.932191
H     -6.537485   -0.249630   -1.941937
H     -3.281052   -0.686507    2.276928
H     -2.528919    0.912743    2.174704
H     -4.237605    0.756894    1.736589
H      6.442175   -3.259738    1.850506
H      7.938081   -2.365599    2.249892
H      7.776671   -3.191017    0.648591
H     -2.597823   -3.537295    0.082240
H     -3.735049   -2.721936    1.177684
H      0.302930   -1.016161    0.458674
H      0.678721   -0.122034   -1.014326
H     -3.848410    3.047046   -1.245606
H     -4.528543    3.185908    0.385867
H     -0.614585    1.070962    1.501696
H     -0.046042    2.017060    0.098732
H     -5.394981    1.412306   -1.428850
H     -5.609403    1.163338    0.299218
H      2.865941    0.582215   -0.908421
H     -3.477935   -2.257615   -1.851439
H     -4.743672   -3.310185   -1.177335
H     -1.607184   -1.579535   -0.660715
H     -1.663227   -1.594754    1.210046
H      3.971364    1.239654    1.938100
H      4.298490    2.194642    0.502884
H      8.846893   -0.320946   -2.952186
H      4.989004   -1.053576    2.268204
H     -1.921039    1.046486   -1.317384
H     -3.569825    0.110456   -1.719483
H      4.323134    2.095897   -2.051545
H      5.569894    3.118281   -1.302898
