39

C     -2.255897   -3.507242   -0.247744
C      5.139248   -1.959826    0.921116
C      4.042237   -1.653059    1.692996
C      5.138588   -1.608431   -0.407363
C      2.940043   -0.995453    1.146452
C      4.030074   -0.949651   -0.947208
C     -2.984946    3.051155    0.645068
C     -3.427524    1.936520   -0.314087
C     -0.680924    2.441147   -0.125303
C      2.926474   -0.637544   -0.183931
C     -1.619876    2.466206    1.046893
C     -2.739915    0.744991    0.297274
C     -0.439039    1.057501   -0.669101
C     -1.701931    0.236564   -0.699639
C      1.786220    0.052151   -0.784828
C     -1.467834   -1.187830   -0.429153
O      1.820251    0.358416   -2.003366
O     -0.322888   -1.592680   -0.113290
O     -2.472794   -2.136900   -0.506155
O     -2.051338    1.176917    1.411008
O      0.653411    0.402043   -0.113393
H     -3.182797   -3.988725    0.101998
H     -1.957081   -3.992411   -1.202202
H     -1.447520   -3.644653    0.506066
H      6.002336   -2.467820    1.322744
H      4.040870   -1.930004    2.743358
H      5.991288   -1.840020   -1.033356
H      2.079962   -0.757240    1.760292
H      4.044620   -0.681681   -1.986862
H     -3.605946    3.082426    1.541394
H     -2.872721    4.009227    0.115184
H     -2.989485    2.208298   -1.306615
H     -4.514966    1.846439   -0.348803
H     -1.146291    3.055378   -0.926529
H      0.295929    2.919273    0.078604
H     -1.236657    3.037328    1.906789
H     -3.433331   -0.065133    0.570676
H     -0.159458    1.212283   -1.756946
H     -2.220394    0.302040   -1.702036
