29

C      2.075158    0.900789   -2.022870
C      3.187194    1.148836   -1.266220
C     -2.245066    0.887970   -0.385150
C     -1.617101    1.111137    0.954782
C      1.005921    0.233922   -1.465659
C      3.228606    0.728154    0.049422
C     -2.426862   -0.548423   -0.726288
C     -0.804862   -0.043087    1.449046
C      0.996565   -0.205911   -0.159833
C      2.117170    0.050489    0.579837
C     -1.107750   -1.204525   -0.719660
C     -0.178743   -0.884063    0.413541
Cl     2.156320   -0.528869    2.230112
N      0.163051   -2.201285    0.944393
O     -0.835071   -1.969336   -1.621535
H      2.049101    1.228020   -3.039428
H      4.056143    1.672849   -1.663751
H     -3.240659    1.420372   -0.365088
H     -1.631074    1.374682   -1.162644
H     -2.402363    1.336437    1.704405
H     -0.989096    2.022823    0.883537
H      0.103645    0.032940   -2.065063
H      4.089804    0.906039    0.678212
H     -2.933480   -0.619336   -1.711792
H     -3.108833   -1.058226    0.018314
H     -0.125250    0.344404    2.220423
H     -1.520890   -0.709584    2.020973
H      0.688764   -2.718368    0.199929
H     -0.750344   -2.708850    1.040804
