40

C     -0.169135   -2.593009    0.740741
C     -2.661990    0.800075    1.003841
C      1.455598    0.799935   -0.536328
C      0.719304   -0.190877   -0.135605
C     -3.424309   -1.205436   -0.558627
C     -2.683297   -0.129396   -1.272212
C      3.456352   -0.706234   -0.292885
C      3.555882    1.671152    0.358017
C     -1.515100    1.965884   -0.740768
C     -1.120410   -1.554332    0.423818
C      2.946254    0.662484   -0.554363
C     -0.687962   -0.339293   -0.014029
C     -2.562153   -1.816780    0.514701
C     -1.763847    0.588276   -0.228747
O      3.026974   -1.653435   -1.232404
O      3.123147    1.508218    1.655586
O     -0.928202    2.801905    0.203466
O     -3.030630   -2.510758    1.436357
H      0.378646   -2.895792   -0.180736
H      0.564509   -2.341222    1.530024
H     -0.688895   -3.498445    1.111367
H     -3.694116    0.875867    0.647738
H     -2.460770    0.135932    1.828654
H     -2.446038    1.839809    1.425556
H      0.984465    1.695396   -0.870354
H      1.368475   -1.071270    0.173883
H     -3.738673   -2.025278   -1.279555
H     -4.335103   -0.837021   -0.059107
H     -3.339230    0.601106   -1.747835
H     -1.996548   -0.590083   -2.022047
H      4.571325   -0.660683   -0.441103
H      3.311758   -1.060139    0.751604
H      4.659153    1.642555    0.313008
H      3.270299    2.694357   -0.013975
H     -2.569192    2.415145   -0.858063
H     -1.089711    2.052052   -1.737582
H      3.263041    0.901109   -1.625251
H      3.282887   -2.545004   -0.855055
H      3.490705    2.275937    2.188973
H     -0.523462    2.297295    0.949298
