37

C     -2.506450   -0.317652   -0.876539
C     -2.118098   -2.176722    0.743549
C     -2.071619    3.633906    0.979033
C      3.603699   -0.673112    0.645432
C      0.273459   -1.484418   -0.856834
C      1.759258   -1.580921   -0.662179
C      1.677872    0.778065    0.248522
C     -1.780812   -0.751486    0.353407
C     -1.284568    2.647288    0.193612
C     -0.292250   -0.648237    0.250078
C      0.199980    0.757367    0.002618
C      2.448887   -0.333617   -0.312123
O     -1.298546    2.692993   -1.058326
O      3.111822    0.134202   -1.476240
O     -0.518589    1.656991    0.780984
H     -1.826799   -0.111733   -1.732810
H     -3.205228    0.520391   -0.681424
H     -3.152470   -1.171576   -1.209732
H     -1.312196   -2.525044    1.440433
H     -3.064391   -2.246527    1.312914
H     -2.157335   -2.838713   -0.164028
H     -2.349683    3.251150    1.976662
H     -2.952039    3.918151    0.362256
H     -1.455984    4.552952    1.117238
H      4.504636   -0.994281    0.080420
H      3.328430   -1.520439    1.309851
H      3.899698    0.211515    1.238345
H      0.100493   -0.927247   -1.814075
H     -0.177306   -2.471949   -0.938439
H      1.925279   -2.378558    0.109755
H      2.164646   -2.038066   -1.612074
H      2.044165    1.773996   -0.136825
H      1.817997    0.850361    1.360893
H     -2.109726   -0.087958    1.192491
H      0.141561   -1.002448    1.210058
H      0.050225    0.970877   -1.085809
H      2.581981   -0.069497   -2.291095
