51

C     -2.030942   -1.708420   -1.410712
C      5.872220    2.634025   -0.142530
C      5.493521    1.796428   -1.144913
C      5.575412    2.270377    1.160083
C      4.832286    0.617521   -0.873029
C      4.918967    1.098972    1.422807
C     -4.680497   -0.457086   -0.232025
C     -4.164980    1.747588    0.418838
C     -6.017911   -0.097820   -0.206361
C     -5.498724    2.087262    0.439411
C      1.596318   -2.160447    0.986560
C      1.865754   -0.266828   -0.599225
C      0.351098   -2.297925    0.108876
C      0.382178   -0.106647   -0.702065
C      3.814643   -1.036515    0.692217
C     -1.745046   -1.090458   -0.052994
C      4.520427    0.224716    0.419409
C      2.317359   -0.876726    0.708603
C     -3.732287    0.456068    0.078773
C     -6.467802    1.160236    0.123054
C     -2.277261    0.275615    0.097676
N     -0.299735   -1.035590    0.117168
O     -7.826588    1.479573    0.136273
O     -1.878369    0.744234    1.382749
H     -1.067799   -1.852666   -1.990972
H     -2.543557   -2.672688   -1.289598
H     -2.633762   -1.050512   -2.035905
H      6.389267    3.557977   -0.339755
H      5.720660    2.069514   -2.178870
H      5.885865    2.953335    1.954585
H      4.554104   -0.011428   -1.706664
H      4.692578    0.826074    2.447940
H     -4.363526   -1.454809   -0.485923
H     -3.424660    2.513250    0.676707
H     -6.733386   -0.873484   -0.465660
H     -5.832501    3.084537    0.702028
H      2.273093   -3.026712    0.864627
H      1.245035   -2.159193    2.031309
H      2.371801    0.696872   -0.768615
H      2.188999   -0.966615   -1.415734
H     -0.241342   -3.130478    0.531575
H      0.727669   -2.493222   -0.912261
H      0.093419   -0.233810   -1.772194
H      0.164758    0.960424   -0.458813
H      4.097031   -1.846140   -0.041810
H      4.169393   -1.410087    1.685345
H     -2.133004   -1.771966    0.718146
H      2.066103   -0.152804    1.508318
H     -1.857122    0.936061   -0.701231
H     -8.308775    1.834373   -0.675994
H     -2.420382    0.216046    2.020831
