33

C      4.754043    0.665176    0.466028
C     -4.264980    0.661795   -0.728539
C      3.355324    0.639899   -0.109234
C      2.864323   -0.768379   -0.327823
C      1.477603   -0.770821   -0.899675
C      0.464775   -0.099290   -0.024192
C     -3.220628   -0.219406   -0.081118
C     -0.901341   -0.134820   -0.647421
C     -1.945806    0.533463    0.208199
C     -1.662949    0.416630    1.661697
C     -2.779300   -1.314781   -0.959979
O     -1.577483    1.434696    2.394725
O     -1.484770   -0.823662    2.251838
O     -3.522088   -2.003474   -1.703219
O     -1.411799   -1.438658   -0.812717
H      4.780133    0.492380    1.553348
H      5.154711    1.692338    0.264677
H      5.390494   -0.061346   -0.044657
H     -3.846055    1.274533   -1.551997
H     -4.649752    1.347537    0.027617
H     -5.094214    0.020279   -1.063315
H      3.372526    1.182673   -1.068252
H      2.677362    1.210461    0.574642
H      2.954381   -1.371193    0.595506
H      3.532030   -1.241471   -1.074910
H      1.518669   -0.215397   -1.862837
H      1.183116   -1.812482   -1.073956
H      0.456719   -0.550960    0.987282
H      0.711504    0.993302    0.099676
H     -3.663236   -0.659618    0.828349
H     -0.858780    0.342752   -1.649767
H     -2.001320    1.594003   -0.090933
H     -1.763208   -1.016158    3.205632
