45

C     -5.831383    1.263484    2.284338
C     -4.671559   -1.741414   -1.120154
C     -1.721856    1.313501    1.473896
C     -3.085215    1.309174    1.765915
C      1.944415   -1.342637   -2.032224
C      1.099680   -0.204146   -2.499606
C      0.912717   -0.275128    0.715257
C      4.134864   -0.821778   -1.183367
C      3.214937    0.125775    1.230692
C      6.844196    0.489229    0.865733
C      2.793182   -0.809608   -0.909383
C      2.318776   -0.334502    0.303772
C     -1.256899    0.766178    0.296788
C      0.146643    0.639675   -0.185315
C     -3.972666    0.752504    0.868582
C      5.035122   -0.357664   -0.247877
C      4.572993    0.121908    0.973169
C     -2.129875    0.211590   -0.602468
C     -3.490755    0.212312   -0.299653
C     -1.331362   -0.236495   -1.725418
N      0.050176    0.057305   -1.500960
O     -1.785142   -0.798627   -2.743128
O     -5.344396    0.703772    1.076631
O     -4.349032   -0.346878   -1.208406
O      6.437871   -0.253355   -0.256952
O      5.690707    0.508833    1.685736
H     -5.252662    0.916775    3.167349
H     -6.919846    1.075185    2.401551
H     -5.701244    2.375878    2.227624
H     -5.764387   -1.847046   -1.125628
H     -4.173186   -2.261003   -1.972214
H     -4.273476   -2.189430   -0.196474
H     -1.022049    1.751776    2.180159
H     -3.448139    1.733071    2.678184
H      1.317657   -2.183700   -1.647252
H      2.603896   -1.708983   -2.838616
H      1.744570    0.699725   -2.581225
H      0.607099   -0.412710   -3.467854
H      0.814012    0.046733    1.771300
H      0.490263   -1.311251    0.570112
H      4.476822   -1.197491   -2.136270
H      2.838210    0.489799    2.162279
H      7.172782    1.503166    0.570711
H      7.626077   -0.077602    1.417054
H      0.637462    1.644100   -0.206389
