57

C      2.876145   -3.755747   -0.995968
C     -4.450925   -0.886103   -2.584850
C      3.496489    4.403737    0.291729
C      3.679677   -0.255656   -0.293801
C     -4.941741   -1.586276    0.079897
C     -1.327936   -0.198129    3.263709
C     -0.686809    1.989932    0.480338
C      2.446151   -3.027292    0.254472
C     -3.094884   -0.638267   -2.093395
C      3.038273    3.950721   -1.080144
C      2.344926   -0.436419    0.479832
C     -3.556638   -1.116956    0.264011
C     -1.923174   -0.064411    1.897992
C      0.164080    0.767159    0.909030
C      1.851686   -1.710612   -0.170246
C     -2.761580   -0.709718   -0.677104
C      2.339063    2.664189   -1.032233
C     -2.974253   -1.067590    1.641680
C      1.424636    0.681451    0.153044
C     -0.793266   -0.374307    0.857282
O      1.016641   -1.655475   -1.011055
O      1.918073    2.183152   -2.122221
O     -3.403816   -1.871390    2.496638
O     -1.446661   -0.283533   -0.376754
O      2.103161    1.938405    0.091222
H      2.488904   -3.217104   -1.868604
H      2.479313   -4.799010   -0.966309
H      3.994565   -3.837174   -1.035495
H     -4.624101   -1.960711   -2.895777
H     -4.541321   -0.377301   -3.634156
H     -5.293312   -0.435581   -2.061166
H      2.768005    4.134515    1.098724
H      4.511524    4.002325    0.517388
H      3.615841    5.516658    0.237472
H      4.236769    0.599071    0.134164
H      3.453682   -0.158003   -1.372532
H      4.320551   -1.151302   -0.176260
H     -5.110102   -2.321337   -0.696485
H     -5.705602   -0.770314    0.157513
H     -5.158208   -2.186057    1.041018
H     -0.272568   -0.551971    3.251255
H     -1.285040    0.807453    3.777304
H     -1.911470   -0.906025    3.913903
H     -0.077636    2.663048   -0.153083
H     -1.559363    1.674293   -0.124836
H     -1.042725    2.534119    1.363949
H      1.602269   -3.601224    0.699758
H      3.256892   -2.886707    0.979342
H     -2.343758   -1.225827   -2.722318
H     -2.828977    0.433516   -2.403696
H      3.947662    3.954611   -1.738440
H      2.373363    4.761306   -1.482684
H      2.517085   -0.653857    1.527977
H     -2.288846    0.949826    1.693743
H      0.383679    0.909787    2.027323
H      1.172879    0.508255   -0.957970
H     -0.417271   -1.350141    1.145875
