20

C     -0.466850    1.577832    0.268142
C      0.787743    1.455570   -0.119243
C     -1.387149    0.417529    0.262221
C      1.357828    0.169309   -0.580762
C     -0.768265   -0.871818   -0.179621
C      0.668740   -0.900170    0.282621
O     -2.471517    0.775620   -0.571928
O      2.732234    0.111138   -0.443631
O     -1.460974   -1.988060    0.284604
O      1.269648   -2.133011    0.124902
H     -0.855000    2.568668    0.609303
H      1.403160    2.353602   -0.087030
H     -1.813238    0.242287    1.287545
H      1.064432   -0.068320   -1.639600
H     -0.764960   -0.876876   -1.298250
H      0.692423   -0.543737    1.337516
H     -2.617679    1.748004   -0.452803
H      3.004626    0.701790    0.327753
H     -2.073565   -2.363575   -0.401209
H      1.698364   -2.375784    0.989470
