43

C      6.089653    0.493200    1.235197
C      5.238107   -0.748530    1.407432
C      3.777017   -0.464581    1.052083
C      3.715907   -0.016870   -0.379284
C      2.318085    0.298235   -0.816505
C      1.428523   -0.895129   -0.698580
C      0.007546   -0.658615   -1.144714
C     -0.631506    0.424813   -0.317717
C     -2.049737    0.649517   -0.770475
C     -2.925545   -0.560666   -0.651373
C     -4.325321   -0.335803   -1.086580
C     -5.114545    0.706712   -0.410277
C     -4.331098    0.601581    2.097622
C     -5.344919    0.605454    1.044997
O     -5.116376   -0.597031    1.715823
H      6.391606    0.636454    0.180369
H      7.031865    0.333621    1.815967
H      5.576374    1.398634    1.625768
H      5.242527   -1.070926    2.466053
H      5.584254   -1.513172    0.700343
H      3.303057    0.224343    1.763076
H      3.264793   -1.457080    1.174177
H      4.327379    0.930266   -0.451927
H      4.171739   -0.816598   -0.996447
H      1.914750    1.117669   -0.165230
H      2.332688    0.624567   -1.878066
H      1.450967   -1.277210    0.355774
H      1.841286   -1.707329   -1.365374
H     -0.566581   -1.612061   -0.982384
H      0.027085   -0.414320   -2.222553
H     -0.598883    0.119646    0.752472
H     -0.042853    1.379046   -0.447033
H     -2.479117    1.421185   -0.066791
H     -2.055764    1.109294   -1.757685
H     -2.803699   -1.122217    0.285820
H     -2.497207   -1.289269   -1.431071
H     -4.294192   -0.074919   -2.178859
H     -4.852876   -1.316145   -1.042420
H     -4.670461    1.724546   -0.602196
H     -6.100883    0.773883   -0.970877
H     -4.612224    0.966297    3.116705
H     -3.276351    0.375179    1.988429
H     -6.345070    1.034329    1.369494
