23

C     -1.815225    0.883197    0.061409
C     -1.841877   -1.198906   -1.179501
C     -0.755610   -1.094847    0.980919
C      3.237135    0.479067    0.449614
C      0.976885    0.972817   -0.673551
C      1.754872    0.548743    0.546867
C     -0.940465   -0.340635   -0.262355
O      2.495048   -0.705492    0.409491
O      0.071070    0.067681   -1.013206
H     -2.325608    1.211479   -0.853467
H     -2.503239    0.629924    0.891717
H     -1.126018    1.659226    0.462356
H     -1.692593   -0.919737   -2.241076
H     -2.910530   -1.023839   -0.948888
H     -1.541878   -2.267342   -1.046261
H     -1.682752   -1.727389    1.143144
H     -0.699012   -0.502350    1.914656
H      0.066968   -1.840065    0.975556
H      3.841240    0.649441    1.360853
H      3.702997    0.739619   -0.505554
H      1.725496    1.055934   -1.518499
H      0.648916    2.011605   -0.510651
H      1.314180    0.711870    1.556427
