16

C      0.752373    1.618485   -0.349367
C      1.682935    0.496943   -0.266224
C     -0.520262    1.346552   -0.305261
C      1.302541   -0.748097   -0.151349
C     -1.086645    0.003619   -0.178842
C     -0.122087   -1.109742   -0.097002
Br     2.661457   -2.128763   -0.052382
O     -1.952078   -0.010382    0.933163
O     -0.360289   -1.895060    1.068395
H      1.176356    2.612734   -0.443031
H      2.766690    0.670725   -0.298715
H     -1.196607    2.198944   -0.368949
H     -1.770286   -0.158602   -1.060259
H     -0.330010   -1.822115   -0.959390
H     -2.868815    0.227932    0.684485
H     -0.135273   -1.303172    1.844727
