49

C      6.348859    0.743622    0.024637
C     -3.148131   -1.084077   -3.501770
C     -0.774335   -3.339786    2.432888
C     -2.227593    3.624939    1.430756
C     -1.791530   -1.334083   -3.560439
C     -3.693201   -0.482973   -2.373552
C     -1.161403   -3.498930    1.125176
C     -0.345645   -2.111516    2.885195
C     -1.421618    3.647555    0.311809
C     -2.506530    2.399200    1.999237
C     -0.951972   -1.001081   -2.520620
C     -2.871190   -0.137477   -1.312567
C     -1.109585   -2.402719    0.283099
C     -0.309249   -1.050249    2.017388
C     -0.934289    2.457310   -0.185033
C     -2.014306    1.216230    1.494295
C      1.661544    0.706572   -0.488098
C     -1.545170   -0.397650   -1.404804
C     -0.691411   -1.148860    0.671897
C     -1.215100    1.233173    0.386993
C      2.644605   -0.067763    0.327602
C      3.939444    0.659434    0.426847
C     -0.629844   -0.023235   -0.242976
O      2.936097   -1.283730   -0.288237
O      3.942188    1.800544    0.954119
O      5.093147    0.095142   -0.045396
O      0.492921    0.319768   -0.802657
H      7.050024    0.223927   -0.675222
H      6.251524    1.792314   -0.290698
H      6.776079    0.682690    1.027563
H     -3.777575   -1.353985   -4.325881
H     -0.811792   -4.189378    3.096045
H     -2.616208    4.557617    1.829790
H     -1.339134   -1.800174   -4.424434
H     -4.740562   -0.266255   -2.275927
H     -1.500489   -4.466092    0.762634
H     -0.030342   -1.936510    3.907431
H     -1.198794    4.616289   -0.141213
H     -3.148651    2.419306    2.884790
H      0.125117   -1.187980   -2.541676
H     -3.241958    0.329414   -0.416087
H     -1.426186   -2.585406   -0.731652
H      0.027313   -0.063057    2.324505
H     -0.296089    2.491562   -1.088655
H     -2.283930    0.313349    1.978997
H      2.236753    1.013482   -1.421194
H      1.605346    1.705463    0.060366
H      2.368557   -0.277048    1.358917
H      2.254295   -1.558888   -0.944187
