49

C      5.398603   -1.375650    0.750244
C     -4.144992    0.126684    2.155589
C     -0.975729    3.892319   -2.347194
C      0.054516   -2.778105   -2.757112
C     -3.155766    0.935532    2.620858
C     -3.992391   -0.637009    1.022653
C      0.077083    3.836870   -1.467285
C     -1.832508    2.826209   -2.440878
C     -0.367012   -3.082568   -1.462636
C      0.308334   -1.472383   -3.095710
C     -1.956290    0.996534    1.938448
C     -2.764895   -0.546845    0.361834
C      0.257928    2.700460   -0.684983
C     -1.629409    1.714240   -1.654320
C     -0.521167   -2.067744   -0.547091
C      0.140679   -0.499070   -2.150713
C      1.089776    0.109487    1.955121
C     -1.745310    0.247878    0.790197
C     -0.595348    1.628954   -0.772812
C     -0.275679   -0.749324   -0.852402
C      1.802881   -1.215223    1.870516
C      2.985705   -1.184550    0.981781
C     -0.413040    0.367907    0.087798
O      2.243581   -1.469399    3.207988
O      2.881230   -0.979029   -0.237860
O      4.235173   -1.392185    1.539458
O      0.561985    0.673592    0.915396
H      5.165615   -0.938698   -0.235988
H      5.718838   -2.430579    0.621881
H      6.191117   -0.800383    1.267130
H     -5.085271    0.075461    2.686336
H     -1.160473    4.758553   -2.981305
H      0.183915   -3.552704   -3.495541
H     -3.266243    1.538370    3.508356
H     -4.774984   -1.281288    0.648264
H      0.766822    4.658883   -1.371565
H     -2.684896    2.822786   -3.126224
H     -0.558347   -4.103235   -1.221586
H      0.637834   -1.259520   -4.117677
H     -1.146409    1.634224    2.265669
H     -2.683839   -1.144454   -0.527179
H      1.085142    2.655152    0.007354
H     -2.300803    0.888408   -1.733148
H     -0.859133   -2.331213    0.470231
H      0.351689    0.516084   -2.450427
H      0.459465    0.053514    2.892753
H      1.925870    0.808038    2.333547
H      1.201139   -2.078621    1.627755
H      3.165014   -1.096362    3.246580
