62

C     -3.348555   -2.117634   -0.490395
C     -4.777426   -2.054172   -0.150053
C     -2.340462   -1.724773    0.236629
C     -5.591924   -1.286131   -1.136577
C      7.016335   -0.101927   -3.393185
C      7.919739    0.564547   -2.596636
C     -2.422502   -1.131267    1.558882
C      5.839420   -0.561004   -2.843778
C      7.623466    0.760730   -1.249024
C     -5.207482    0.146096   -1.292905
C     -2.067326    2.621236    1.711099
C     -0.554035    2.625790    1.805288
C      2.406418   -1.562854    0.066874
C      3.303843   -1.373294   -0.974278
C     -1.196614    1.488653   -0.123749
C      3.836573   -0.440775    1.587206
C     -2.314152    1.329699    0.923756
C     -0.056581    1.536082    0.912448
C      2.659405   -1.106292    1.335771
C     -1.807704    0.215554    1.735810
C      5.556447   -0.359114   -1.500203
C      4.483604   -0.699786   -0.697627
C      6.447439    0.306367   -0.682751
C      4.763532   -0.229685    0.571635
C     -6.105496    0.744191   -2.326583
C     -0.283893    0.169035    1.543420
N      0.440804   -0.016764    2.745718
O     -6.994842    0.082263   -2.904761
O     -5.975720    2.089680   -2.685840
O      2.204877   -1.641727    3.905417
O      0.729160   -2.613660    2.243435
O      5.936289    0.355843    0.521373
S      1.491561   -1.365530    2.605364
H     -3.088162   -2.549982   -1.482631
H     -4.965521   -1.590763    0.844397
H     -5.224616   -3.085344   -0.067423
H     -1.319478   -1.853526   -0.189093
H     -5.611212   -1.754264   -2.145472
H     -6.657115   -1.294233   -0.775880
H      7.258185   -0.246456   -4.432974
H      8.870319    0.950528   -2.981445
H     -3.459003   -1.121748    1.980323
H     -1.874092   -1.799606    2.306044
H      5.104096   -1.093293   -3.453584
H      8.323180    1.282253   -0.611000
H     -5.398641    0.721206   -0.345181
H     -4.168239    0.309031   -1.618043
H     -2.540092    2.450085    2.707899
H     -2.466139    3.499170    1.206243
H     -0.270528    2.494005    2.867668
H     -0.200098    3.599020    1.414680
H      1.492052   -2.099280   -0.185823
H      3.147635   -1.712322   -1.980585
H     -1.107935    0.615811   -0.767478
H     -1.277274    2.453294   -0.638520
H      4.073753   -0.068266    2.562362
H     -3.286627    1.265082    0.498761
H      0.913510    1.671013    0.470167
H     -1.934627    0.485245    2.826776
H     -0.058088   -0.586011    0.790036
H      0.869474    0.801474    3.178053
H     -6.758916    2.663682   -2.940055
