70

C      8.796463    3.130604   -2.360860
C     -5.046013    5.134311    2.386640
C      8.424672   -1.422458    0.824984
C     -6.157527   -0.183846    3.264091
C     -4.627290   -3.323495   -1.414332
C     -4.976058   -1.986508   -2.035566
C     -3.128931   -3.507479   -1.573049
C      4.998539    1.487655   -1.516566
C      3.587721   -0.224345   -0.428467
C     -2.773640    2.112624    0.381786
C      6.229273    2.016537   -1.790274
C     -3.497868    3.089265    1.021145
C      3.387274   -1.272364    0.317933
C     -3.852139   -1.024885   -1.747109
C      6.065116   -0.205250   -0.230400
C     -4.109708    0.442429    1.508789
C     -1.005331   -2.316582   -0.946563
C     -1.255111   -0.751643    0.898147
C      4.908110    0.346494   -0.716004
C     -3.104418    0.781209    0.646916
C     -2.445601   -2.605645   -0.586804
C     -0.348208   -1.770944    0.302912
C     -2.328264   -0.272343   -0.043533
C      7.396949    1.439900   -1.286338
C     -4.516236    2.790963    1.894723
C      7.296158    0.323771   -0.504067
C     -4.810536    1.455016    2.128357
C      2.034834   -1.803397    0.571973
N     -3.142140   -1.343283   -0.553789
O      1.885698   -2.808249    1.298595
O      8.634889    1.977796   -1.566359
O     -5.258833    3.749740    2.549293
O      8.425293   -0.267543    0.007754
O     -5.835242    1.155013    3.006914
O      0.918418   -1.209735    0.018837
H      9.859815    3.212226   -2.658516
H      8.151121    3.137011   -3.263391
H      8.568055    4.001148   -1.686912
H     -4.174124    5.436677    2.983313
H     -5.961138    5.696059    2.705906
H     -4.828800    5.372107    1.319392
H      8.287079   -2.350522    0.230951
H      7.632986   -1.379091    1.602578
H      9.442756   -1.481886    1.294475
H     -7.084077   -0.190916    3.886228
H     -6.361425   -0.725217    2.296120
H     -5.353192   -0.726701    3.790718
H     -4.801975   -3.220524   -0.314355
H     -5.207085   -4.157981   -1.848621
H     -5.953329   -1.606978   -1.671281
H     -5.017238   -2.145326   -3.127101
H     -2.887742   -4.560983   -1.306938
H     -2.791370   -3.333884   -2.601439
H      4.092576    1.937012   -1.908984
H      2.700508    0.250793   -0.863554
H     -1.973914    2.367598   -0.304527
H      6.294032    2.897452   -2.408175
H     -3.252886    4.142404    0.826458
H      4.210758   -1.775592    0.768388
H     -3.191818   -0.850900   -2.625297
H     -4.348734   -0.027333   -1.555478
H      6.022421   -1.083575    0.386498
H     -4.333046   -0.596568    1.685150
H     -1.019173   -1.494944   -1.706157
H     -0.483764   -3.215943   -1.330486
H     -0.709360    0.103978    1.335002
H     -1.780527   -1.231717    1.778139
H     -2.445169   -3.070865    0.407637
H     -0.248942   -2.654051    0.983582
H     -1.823594    0.193704   -0.912319
