44

C     -3.862603   -0.040312    0.686557
C      4.055436   -3.335291   -0.827827
C     -0.056589   -2.824824    0.552324
C      1.247104   -3.037371    0.124475
C      0.247710    2.757415    1.358392
C     -0.153800    1.515879    1.219844
C     -1.548102    1.003595   -0.690306
C     -2.194484   -0.293239   -1.025437
C      1.388757    2.748116   -0.854115
C     -2.047580   -1.550584    1.019128
C     -0.638934   -1.576550    0.522829
C      0.667713    3.530488    0.199035
C      2.033644   -2.009748   -0.354809
C      0.906277    1.354574   -1.046280
C      0.146910   -0.541076    0.042520
C      1.439694   -0.750575   -0.382209
C     -0.175958    0.915919   -0.109634
N     -2.915149   -0.896245    0.063539
O      1.449228    4.601049    0.633148
O      3.324148   -2.153746   -0.791058
O      1.997535    0.470638   -0.816861
Br     0.768809    0.000000    0.000000
H     -4.342556    0.605870   -0.077938
H     -4.684267   -0.680372    1.102998
H     -3.429703    0.621896    1.467131
H      3.722188   -3.985849   -1.652649
H      5.139443   -3.065944   -0.920674
H      3.957536   -3.821341    0.176811
H     -0.641015   -3.667781    0.923602
H      1.707101   -4.020862    0.147324
H      0.276649    3.246198    2.345744
H     -0.477211    0.904245    2.074359
H     -1.554454    1.719546   -1.568865
H     -2.210515    1.512560    0.054285
H     -1.486940   -1.021397   -1.464994
H     -2.955436   -0.088354   -1.832778
H      2.473795    2.797721   -0.616663
H      1.276202    3.294122   -1.815875
H     -2.375910   -2.607482    1.089589
H     -2.085015   -1.121141    2.028444
H     -0.258197    4.004238   -0.244419
H      0.556365    1.150494   -2.076454
H      2.080983    4.335522    1.337767
H     -0.768809    0.000000    0.000000
