44

C     -3.819114   -1.867972    0.228231
C      4.961723   -1.824792    0.015775
C      0.761661   -2.759899   -0.069533
C      2.125711   -2.499570   -0.045757
C     -0.973565    2.617631   -1.384101
C     -0.820759    1.336476   -1.128229
C     -1.663758    0.795279    1.112132
C     -2.035067   -0.544902    0.932240
C      0.615002    3.185753    0.353691
C     -1.512883   -2.502422   -0.023428
C     -0.188042   -1.757924    0.012442
C     -0.684164    3.591964   -0.296563
C      2.586345   -1.207280    0.063089
C      0.665108    1.767978    0.827142
C      0.261993   -0.480293    0.118581
C      1.605272   -0.210288    0.144634
C     -0.372371    0.914197    0.216318
N     -2.517358   -1.786022    0.857568
O     -0.447967    4.828320   -0.917002
O      3.939930   -0.881100    0.092798
O      1.850679    1.176463    0.265492
Br     0.764658    0.000000    0.000000
H     -3.983293   -2.779859   -0.343232
H     -3.988945   -0.961247   -0.423518
H     -4.603902   -1.805111    1.010230
H      5.229941   -2.271967    0.991252
H      4.699384   -2.619559   -0.694392
H      5.879824   -1.307024   -0.362578
H      0.516436   -3.806524   -0.157134
H      2.862342   -3.296379   -0.111390
H     -1.305849    2.988097   -2.364943
H     -1.018605    0.603997   -1.884969
H     -2.426428    1.526649    0.710992
H     -1.389150    1.180343    2.109644
H     -1.091644   -0.913537    1.474163
H     -1.970829   -0.470557   -0.214403
H      1.389464    3.313410   -0.460482
H      0.922796    3.912257    1.143702
H     -1.870550   -2.407882   -1.064516
H     -1.421251   -3.513995    0.360271
H     -1.481667    3.660534    0.448700
H      0.690411    1.687642    1.937340
H      0.023137    5.389118   -0.271639
H     -0.764658    0.000000    0.000000
