62

C     -4.678976   -0.499524    1.494577
C     -4.405294   -1.858355    1.040971
C     -3.718220    0.368665    1.665625
C     -5.033608   -2.238238   -0.253403
C      8.594107   -0.711710    0.747332
C      9.016518   -0.404119   -0.530664
C     -2.302442    0.135461    1.443995
C      7.255796   -0.914706    1.005136
C      8.116311   -0.296429   -1.556407
C     -6.519221   -2.216938   -0.326678
C     -1.925341    3.323949   -0.529786
C     -0.539838    2.963454   -1.081255
C      2.687988   -1.330735    0.527259
C      4.017078   -1.251000    0.869251
C     -0.516795    2.850759    1.256283
C      3.265660   -0.809798   -1.713292
C     -1.936130    2.521243    0.754197
C      0.194909    2.282790    0.016139
C      2.303088   -1.109567   -0.771594
C     -1.782210    1.088819    0.385643
C      6.334812   -0.808922   -0.022674
C      4.981114   -0.949169   -0.080912
C      6.773628   -0.496594   -1.314254
C      4.622234   -0.722860   -1.390759
C     -7.166774   -0.919818   -0.089940
C     -0.300861    0.846125    0.089743
N     -0.179049    0.283536   -1.215519
O     -8.111674   -0.846535    0.757726
O     -6.802642    0.247940   -0.747786
O     -0.092185   -2.218591   -0.460895
O      0.611747   -1.699920   -2.707349
O      5.702821   -0.462149   -2.074386
S      0.655551   -1.188092   -1.295971
H     -5.702499   -0.178329    1.716048
H     -3.359252   -2.204499    1.137633
H     -4.937666   -2.523072    1.819140
H     -4.014281    1.372116    2.012870
H     -4.686617   -3.273774   -0.539681
H     -4.672395   -1.503227   -1.034917
H      9.348223   -0.790404    1.544537
H     10.071502   -0.242077   -0.744651
H     -1.781862    0.389338    2.423007
H     -1.961552   -0.858979    1.201713
H      6.949356   -1.155554    2.020910
H      8.482042   -0.055028   -2.539028
H     -6.983527   -2.975288    0.378305
H     -6.857353   -2.528762   -1.366654
H     -2.728941    3.025824   -1.200474
H     -1.895199    4.424707   -0.334669
H     -0.741863    2.213864   -1.886529
H     -0.035876    3.826166   -1.520645
H      1.915965   -1.567555    1.263390
H      4.298493   -1.428016    1.897506
H     -0.257309    2.266545    2.139724
H     -0.351832    3.926194    1.337779
H      3.034095   -0.622546   -2.757233
H     -2.696621    2.798476    1.453443
H      1.259982    2.390687    0.044240
H     -2.387145    0.913801   -0.543733
H      0.160393    0.266342    0.895683
H     -1.098929    0.167503   -1.695585
H     -7.491431    0.966573   -0.900811
