37

C     -0.187593    2.756888   -0.266185
C     -0.271962   -1.958114   -0.853376
C     -1.764234   -0.193896   -1.606031
C     -2.058811    1.625498    0.768809
C     -2.466247    0.293255    1.325489
C      2.290328    0.120248   -1.118489
C      1.989398   -0.752180    1.217631
C      1.039976    0.512128   -1.137380
C      0.730956    0.071038    1.275281
C      4.111775   -0.867107    0.131006
C     -0.724236    1.631027    0.155565
C      2.837614   -0.501268    0.054800
C     -1.869019   -0.903585    0.702458
C     -0.929289   -0.664437   -0.438527
C      0.087729    0.373748   -0.020737
Br     5.249363   -0.556831   -1.365734
Br    -3.357902   -1.938719   -0.051486
H      0.799398    2.783505   -0.723210
H     -0.755180    3.697176   -0.152255
H      0.651253   -1.700753   -1.409949
H     -0.128287   -2.674886   -0.047206
H     -0.928836   -2.459012   -1.622060
H     -2.837365   -0.432709   -1.516927
H     -1.684012    0.897149   -1.771406
H     -1.398395   -0.670212   -2.537959
H     -2.041240    2.386730    1.604332
H     -2.783587    2.028027    0.031224
H     -3.586522    0.285795    1.343859
H     -2.189237    0.285646    2.422205
H      2.931667    0.258678   -1.987259
H      2.597767   -0.616716    2.159135
H      1.714990   -1.827501    1.220396
H      0.683624    0.973477   -2.047838
H      0.080279   -0.387503    2.041218
H      1.061322    1.050131    1.744697
H      4.523948   -1.336781    1.018636
H     -1.419433   -1.587934    1.457270
