58

C      3.566019   -1.853002   -0.939923
C      1.130591    2.548127    1.280739
C     -4.238832    0.443087   -1.242638
C     -4.525424    0.064689    1.138421
C     -0.810879    0.078347   -1.626965
C      2.292629    0.333298   -0.791564
C     -1.118371    2.655430    0.528387
C      1.490591   -0.132077    0.347329
C     -2.197659    1.961933   -0.221272
C     -2.365557   -2.121547    0.642324
C      4.476201    0.066806    0.351228
C     -1.040650   -1.630928    0.103242
C      5.917888   -0.457442    0.217064
C      3.649623   -0.379710   -0.824991
C      0.090976    1.866366    0.813419
C      0.144815    0.420001    0.603286
C     -2.274628    0.535639    0.337826
C     -3.454525   -1.613582   -0.234326
C     -3.546153   -0.133621   -0.032730
C     -1.009975   -0.137109   -0.154929
O      6.505993    0.022316   -0.941039
O     -3.271438   -2.024243   -1.531075
H      4.510848   -2.210658   -1.443878
H      2.728072   -2.217922   -1.530985
H      3.614434   -2.331797    0.079825
H      1.074179    3.611194    1.434654
H      2.041864    2.044094    1.515657
H     -3.900163    1.427584   -1.550245
H     -4.150812   -0.231715   -2.140737
H     -5.354545    0.528409   -1.086720
H     -4.803642    1.123885    1.234929
H     -4.140967   -0.391840    2.064208
H     -5.439113   -0.503864    0.851705
H     -1.788145    0.186046   -2.168772
H     -0.263258    1.011391   -1.830654
H     -0.236924   -0.771898   -2.011121
H      1.872926    0.130233   -1.794345
H      2.597532    1.424011   -0.708178
H     -1.492927    3.191412    1.437482
H     -0.769946    3.503132   -0.143013
H      2.137764   -0.025924    1.275268
H      1.420195   -1.256999    0.241044
H     -3.149745    2.482350    0.020995
H     -1.961573    1.992322   -1.292365
H     -2.319913   -3.213786    0.713731
H     -2.440406   -1.737921    1.682625
H      4.560430    1.169918    0.414975
H      4.082527   -0.284618    1.326232
H     -0.303877   -1.933996    0.909300
H     -0.813575   -2.224049   -0.805718
H      5.965735   -1.545059    0.307576
H      6.477046   -0.018054    1.084616
H      4.148524    0.040352   -1.748235
H     -0.080947    0.019880    1.696447
H     -2.168967    0.639673    1.433881
H     -4.409737   -2.113083    0.109586
H      7.315252    0.567901   -0.771032
H     -3.969384   -2.593382   -1.894339
