61

C     -7.458363    2.425399    2.098203
C     10.883997    1.257786    0.270609
C     10.586935    1.842552    1.492186
C      9.887974    0.694104   -0.489393
C      9.271531    1.843649    1.922583
C      3.010214   -1.707510   -2.538083
C      1.757377   -2.099054   -2.903861
C      2.136798   -0.532783   -0.691576
C      7.380909    0.229106   -0.567611
C     -0.423759   -0.690058   -0.505052
C     -5.690975   -2.089751   -0.292343
C     -5.063447    1.542991    0.148706
C     -9.038812    0.460816    1.616321
C     -3.124632    0.155055    0.860133
C     -7.796000    1.061746    1.571504
C      8.586759    0.703550   -0.047556
C      0.836920   -0.921250   -1.045069
C     -4.453292    0.800585    1.338379
C      3.232535   -0.910856   -1.417374
C      8.252134    1.283823    1.177609
C      0.662676   -1.701217   -2.149126
C      6.366514    0.518538    0.319402
C     -1.358061   -1.331838   -1.286925
C     -7.118612   -2.179221    0.000594
C     -4.993934   -1.001144   -0.002325
C     -6.959895    0.131251    0.951165
C     -7.698731   -0.992180    0.640802
C      4.960843    0.158820    0.085025
C     -2.794091   -1.436959   -1.150238
C     -5.545140    0.204009    0.610609
N     -8.958804   -0.753782    1.060152
N      4.528867   -0.509767   -1.060501
N      6.920544    1.145570    1.345193
N     -0.656189   -1.944007   -2.288597
N     -3.567748   -0.772261   -0.157413
O     -7.799793   -3.199015   -0.275885
O      4.153731    0.483330    0.972027
O     -3.391852   -2.196855   -2.003245
H     -7.648270    3.217693    1.349672
H     -6.505326    2.473857    2.620618
H     -8.232046    2.640101    2.903458
H     11.922185    1.272040   -0.040004
H     11.386376    2.293345    2.099041
H     10.100075    0.235884   -1.439878
H      9.027266    2.298880    2.877800
H      3.903252   -2.005604   -3.115050
H      1.610457   -2.721287   -3.783219
H      2.176834    0.093169    0.200665
H      7.287434   -0.277013   -1.510754
H     -0.566416   -0.109136    0.386422
H     -5.202183   -2.936963   -0.755765
H     -5.610362    2.435103    0.426040
H     -4.563730    1.579734   -0.816040
H     -9.900900    0.960547    2.052044
H     -2.634109   -0.397226    1.660734
H     -2.503346    0.975379    0.420643
H     -4.482928    1.229595    2.336050
H     -9.751803   -1.449225    0.950798
H      5.316173   -0.741240   -1.758598
H      6.379123    1.485725    2.175789
H     -1.032887   -2.526531   -3.073765
