39

C     -3.466727    0.238257    1.207192
C     -2.502191    2.098576    0.062540
C      2.010135   -0.961855   -1.613030
C      2.414800   -1.706508    0.626874
C      0.727602   -1.593121   -1.534631
C      1.114175   -2.321339    0.649150
C     -3.610624   -1.044222    1.684478
C     -1.117395    2.692819   -0.051721
C     -1.808525   -0.354304   -0.439538
C      2.223302    1.832063   -0.795236
C     -2.587620    0.610501    0.168732
C      2.803782   -1.036690   -0.498538
C      0.314531   -2.234466   -0.408889
C     -2.788240   -2.002306    1.054859
C     -1.945274   -1.631646    0.059528
C      3.587053    1.335974   -0.504937
C     -0.017976    1.801516    0.396220
C      3.966098   -0.026698   -0.475601
O     -2.957751   -3.292890    1.567545
O     -0.244377    1.343093    1.590942
O      1.116578    1.391103   -0.163489
O     -1.122232   -2.763851   -0.418408
O      3.975129    0.822557    0.675413
H     -4.111834    0.989748    1.703018
H     -2.913999    2.616847    0.984120
H     -3.136164    2.454082   -0.740677
H      2.170933   -0.549686   -2.654877
H      2.968181   -1.958693    1.576884
H      0.254998   -1.475551   -2.542181
H      1.000328   -2.828878    1.640277
H     -4.282040   -1.319477    2.465480
H     -0.997607    3.637606    0.514420
H     -1.023559    2.968855   -1.120462
H     -1.227794   -0.110905   -1.390256
H      2.204822    2.980116   -0.738014
H      2.063784    1.688683   -1.914912
H      4.364263    2.050444   -0.923846
H      4.964753   -0.329716   -0.836984
H     -2.383317   -4.010039    1.138551
