58

C      6.557585   -0.388630    1.450338
C     -3.243779   -4.209364   -2.482681
C     -4.514969    0.347184    3.093027
C     -0.981786    3.164831   -2.737206
C      6.576418    0.810907    0.776310
C      5.359786   -0.956245    1.838453
C     -2.056953   -3.632476   -2.900898
C     -3.900809   -3.699618   -1.400021
C     -3.363054   -0.343776    3.379235
C     -4.759165    0.732370    1.791876
C     -1.313421    1.978513   -3.367513
C     -0.835486    3.160439   -1.381337
C      5.361242    1.452998    0.486809
C      4.176311   -0.324437    1.552750
C     -1.512580   -2.555319   -2.258576
C     -3.361532   -2.610054   -0.740644
C     -2.482457   -0.633331    2.357783
C     -3.866174    0.434708    0.776996
C     -1.493151    0.812217   -2.640406
C     -1.016827    1.991723   -0.664240
C      2.961165    2.319898   -0.707633
C     -0.106575   -0.985876    0.388321
C      4.184523    0.892598    0.869400
C     -2.161003   -2.029755   -1.167002
C     -2.697825   -0.263342    1.052790
C     -1.347161    0.798943   -1.269631
C      2.898592    1.530803    0.579106
C      0.809167    0.004333    0.880361
C      2.317815    0.162541   -1.164696
N      1.908907    0.513146    0.150161
O      0.634133    0.466457    2.051316
O      2.115710   -0.961343   -1.740044
O      2.977596    1.278281   -1.698568
P     -1.556716   -0.641864   -0.256061
H      7.481536   -0.918501    1.693898
H     -3.678698   -5.061732   -2.987486
H     -5.188267    0.561636    3.911024
H     -0.838488    4.091822   -3.310867
H      7.527150    1.234347    0.483461
H      5.314972   -1.902879    2.372280
H     -1.581563   -4.084114   -3.769345
H     -4.844749   -4.122706   -1.030748
H     -3.136016   -0.666547    4.404784
H     -5.677776    1.276071    1.601048
H     -1.428829    1.993274   -4.460028
H     -0.573794    4.103628   -0.897760
H      5.486803    2.384989   -0.037941
H      3.217309   -0.726470    1.834112
H     -0.598339   -2.117364   -2.587020
H     -3.905286   -2.226890    0.115590
H     -1.588091   -1.177756    2.620458
H     -4.123050    0.768422   -0.220704
H     -1.748845   -0.089660   -3.151416
H     -0.885532    2.059816    0.405380
H      3.808008    2.994454   -0.784524
H      1.998668    2.905264   -0.815449
H      0.185945   -2.024891    0.450129
H      2.509401    2.128322    1.410069
