56

C     -4.268304    3.635340    0.332868
C     -3.929067    3.004796    1.505914
C     -3.848934    3.117951   -0.858000
C     -3.170139    1.861423    1.431219
C     -3.090843    1.975244   -0.922589
C     -3.159951   -2.019045    0.820642
C     -2.893961   -1.436989   -1.464350
C     -3.866527   -3.165020    0.522190
C     -3.596969   -2.574313   -1.800765
C      1.350790   -1.000577   -0.061489
C      0.889272    1.178949    0.754052
C      0.032175   -0.981292   -0.717804
C     -0.031278    1.409883   -0.444085
C      3.029442    0.191498    1.179290
C      4.185751   -0.373041    0.358580
C      6.416493   -0.912999    0.535486
C     -2.720307    1.296684    0.248110
C     -2.669590   -1.150570   -0.133411
C     -4.081927   -3.436134   -0.812765
C      6.937655   -0.120378   -0.578095
C     -1.911598    0.072157    0.214474
Cl    -4.969010   -4.866993   -1.287367
N      1.883981    0.251456    0.321331
N     -0.759406    0.184595   -0.656056
O      7.931669   -0.524250   -1.223575
O      6.341450    1.076116   -0.923553
O      5.292443   -0.435398    1.155703
Cl     0.683694    0.000000    0.000000
Cl     0.690826    0.000000    0.000000
H     -4.871128    4.549266    0.348626
H     -4.271468    3.431566    2.440061
H     -4.109544    3.606680   -1.810698
H     -2.912057    1.375722    2.369379
H     -2.773560    1.587327   -1.869662
H     -2.992520   -1.810845    1.876171
H     -2.525351   -0.781784   -2.241057
H     -4.239899   -3.828945    1.289110
H     -3.772344   -2.797649   -2.841081
H      1.401445   -1.766794    0.774933
H      2.079851   -1.439609   -0.814965
H      1.355139    2.130959    1.079520
H      0.262481    0.831466    1.582750
H     -0.566171   -1.843766   -0.279821
H      0.099993   -1.266262   -1.814975
H      0.627433    1.554181   -1.323185
H     -0.743008    2.220988   -0.277825
H      3.294612    1.237882    1.482821
H      2.859620   -0.407191    2.084156
H      3.897031   -1.420234    0.058573
H      4.286759    0.195309   -0.558037
H      7.192348   -1.025054    1.336636
H      6.210783   -1.976665    0.215105
H     -1.520614   -0.088852    1.240567
H      6.406861    1.473210   -1.843058
H     -0.683694    0.000000    0.000000
H     -0.690826    0.000000    0.000000
