53

C      3.767793   -1.638848   -0.699109
C      1.621641    2.513559    0.181026
C     -3.989295    1.012395   -1.752824
C     -4.199988    0.371354    0.629867
C     -0.136499   -1.395480   -1.671399
C      4.202542    0.504375    0.367313
C      3.549055    1.215308    1.513546
C     -2.573299   -1.956667   -0.332733
C     -1.195500   -2.403445    0.244012
C     -0.371726    1.876847    1.138645
C      0.724692   -0.698059    0.531722
C      3.120009   -0.371003   -0.193838
C      1.105207    1.668085    1.049234
C      2.171264    0.787128    1.620688
C      2.115142   -0.620842    0.885509
C     -2.411745   -0.590499   -0.848025
C     -1.100697    1.155270   -0.015343
C     -1.407587   -0.228773    0.166469
C     -3.251727    0.560713   -0.506061
C     -0.305598   -1.291503   -0.146618
O     -2.413523    1.659108   -0.154034
H      3.491884   -2.521115   -0.105266
H      3.388998   -1.809815   -1.727985
H      4.877015   -1.519234   -0.802304
H      0.927450    3.216125   -0.326140
H      2.674349    2.561490   -0.076681
H     -4.546271    0.155370   -2.188276
H     -3.210933    1.289978   -2.518214
H     -4.658739    1.871833   -1.557217
H     -3.649584    0.451252    1.576481
H     -4.825060   -0.525610    0.553685
H     -4.917756    1.243048    0.609360
H     -0.832867   -2.097196   -2.125775
H     -0.064984   -0.409011   -2.143255
H      0.887851   -1.857659   -1.794901
H      5.059154   -0.125874    0.682747
H      4.590223    1.181820   -0.423001
H      4.128173    0.852465    2.438433
H      3.802601    2.274684    1.474425
H     -3.303321   -1.980950    0.511149
H     -2.908422   -2.717420   -1.052943
H     -1.265276   -2.464874    1.353178
H     -0.932073   -3.389351   -0.152311
H     -0.599514    2.951039    0.991292
H     -0.799865    1.607912    2.121834
H      0.806280    0.216868   -0.169270
H      0.298823   -0.445239    1.563510
H      2.630588    0.191258   -1.018567
H      1.912513    0.503479    2.672896
H      2.507474   -1.381163    1.571220
H     -2.084262   -0.507228   -1.894994
H     -0.591429    1.468500   -0.944916
H     -1.813183   -0.414407    1.174441
