49

C     -4.941033   -0.333013   -1.168985
C     -4.433000   -0.147063    1.210350
C     -3.267788   -1.799615   -0.180005
C      3.415952   -2.458331    0.150647
C      4.302956   -0.895598    1.784476
C      5.215837    1.783330   -1.523452
C     -3.105301    1.934215   -1.995102
C     -2.296919    2.044624    0.901442
C      1.198648   -0.474038   -0.386854
C     -0.094833    0.186946    0.037829
C      2.152842   -0.383258    0.771726
C      4.248757   -0.268451   -0.551882
C     -3.807353   -0.389633   -0.152029
C      3.491658   -1.007293    0.484837
O      2.349740    0.928025    1.162051
O      4.713213   -0.900234   -1.533252
O      4.480075    1.097309   -0.505761
O     -1.039798    0.144784   -0.987958
Si    -2.505649    0.874992   -0.554471
H     -5.887342   -0.664488   -0.668437
H     -4.755335   -1.029440   -1.988844
H     -5.034651    0.695537   -1.544684
H     -4.681489   -1.111912    1.715877
H     -3.779580    0.417689    1.886000
H     -5.414885    0.380513    1.097270
H     -3.171373   -2.107371   -1.255628
H     -3.991214   -2.437636    0.361019
H     -2.288546   -1.828901    0.328529
H      4.453905   -2.831720    0.025980
H      2.890008   -2.671999   -0.799494
H      2.989336   -3.036288    1.001611
H      3.774357   -1.542278    2.516260
H      5.327865   -1.207545    1.570752
H      4.213057    0.161754    2.094287
H      4.921201    2.839039   -1.502072
H      5.108601    1.316193   -2.503701
H      6.305060    1.686414   -1.242898
H     -3.878523    2.619062   -1.587600
H     -3.505633    1.291939   -2.790681
H     -2.238016    2.549887   -2.314172
H     -3.266417    2.594282    0.997970
H     -2.033820    1.474015    1.793748
H     -1.536587    2.816157    0.626925
H      1.576023   -0.018664   -1.309003
H      0.949536   -1.528826   -0.621604
H     -0.521470   -0.313976    0.917858
H      0.099150    1.240025    0.279167
H      1.701815   -0.933283    1.620914
H      1.596962    1.244124    1.743372
