49

C     -3.981813   -1.689889   -0.755974
C     -3.064994   -0.895912    1.364772
C     -5.085629    0.206392    0.451598
C      3.879745    0.309457   -1.614019
C      4.448121    1.138749    0.665711
C      5.145342   -3.105582    0.955531
C     -3.493977    1.330940   -2.370934
C     -2.382543    2.219631    0.325551
C      1.133510   -0.062718   -0.768912
C     -0.218161    0.567899   -0.497042
C      2.146930    0.711409    0.038324
C      3.747265   -1.147604    0.415981
C     -3.792466   -0.466064    0.111747
C      3.535297    0.194422   -0.135241
O      1.813745    0.604751    1.387807
O      2.785434   -1.785895    0.937132
O      4.964733   -1.806955    0.415823
O     -1.241473   -0.059972   -1.187456
Si    -2.701493    0.752292   -0.787508
H     -3.071680   -1.775945   -1.393923
H     -4.001661   -2.580413   -0.110639
H     -4.860515   -1.562754   -1.397487
H     -2.853254   -0.036207    2.035852
H     -3.638139   -1.678132    1.921538
H     -2.071558   -1.323034    1.051386
H     -4.868190    1.133916    0.990051
H     -5.735182   -0.468427    1.062533
H     -5.580341    0.484535   -0.503319
H      4.969452    0.322516   -1.684289
H      3.395049    1.231407   -1.981524
H      3.511468   -0.610986   -2.106313
H      4.226537    0.988346    1.737683
H      4.206119    2.182276    0.380176
H      5.476341    0.853056    0.416836
H      4.323054   -3.785292    0.651990
H      6.065879   -3.512910    0.464450
H      5.329829   -3.107546    2.032081
H     -4.426246    0.750627   -2.559097
H     -2.826608    1.194902   -3.252141
H     -3.707051    2.420424   -2.315321
H     -3.343399    2.756954    0.433652
H     -1.981039    1.887379    1.293632
H     -1.654241    2.908083   -0.185882
H      1.320380    0.096500   -1.868740
H      1.121345   -1.127176   -0.544067
H     -0.188141    1.619420   -0.798164
H     -0.418216    0.473895    0.592004
H      2.110922    1.771399   -0.283006
H      1.531511    1.477837    1.769739
