52

C     -4.108974    1.133608    0.730481
C     -3.955221   -1.236714   -0.086635
C      3.392565   -0.063157    1.289729
C     -0.347091   -4.620618   -1.002429
C      0.372942    3.571427    2.033299
C      1.574156   -1.572055   -1.993533
C      2.428121    2.126438   -1.140319
C      2.189432   -1.154991   -0.684478
C      3.434930    1.113340   -0.738734
C      1.071904   -2.952089   -1.862179
C      1.774733    2.839993    0.019424
C     -0.630503   -2.153951   -0.186618
C     -0.004119    1.413674    1.227064
C     -1.187544   -1.008264   -0.313679
C     -1.229276    1.394331    0.308226
C     -3.310488    0.136119   -0.052131
C      2.893273   -0.199684   -0.166037
C      0.062188   -3.145223   -1.033407
C      0.874217    2.634369    0.920263
C     -1.886474    0.000702    0.535187
H     -5.175426    0.782845    0.847620
H     -4.059615    2.106939    0.203031
H     -3.627098    1.217757    1.740608
H     -3.819299   -1.790109    0.869937
H     -5.032734   -1.098172   -0.266589
H     -3.544874   -1.793806   -0.952127
H      2.716066    0.608183    1.866742
H      3.705069   -0.888483    1.854630
H      4.363302    0.569231    1.266001
H     -0.755857   -4.924773   -1.971053
H     -1.003172   -4.803385   -0.138228
H      0.604387   -5.163436   -0.772033
H     -0.774832    3.617446    1.963339
H      0.646413    4.565232    2.151654
H      0.577555    3.068322    3.039375
H      2.248854   -1.608487   -2.868585
H      0.813328   -0.837646   -2.246877
H      1.781364    1.730063   -1.922821
H      3.052665    2.887950   -1.710831
H      1.793922   -2.068589   -0.050436
H      4.140401    0.964856   -1.574311
H      4.080587    1.649144    0.024768
H      1.565976   -3.702758   -2.455789
H      2.397574    3.831753   -0.066417
H     -0.603314   -2.708787    0.846925
H     -0.481947    1.522743    2.255211
H      0.413481    0.441337    1.221046
H     -1.281343   -0.437056   -1.325991
H     -2.013384    2.098734    0.648519
H     -0.948705    1.513973   -0.751138
H     -3.175440    0.459253   -1.104109
H     -2.012673   -0.067531    1.574439
