42

C      5.325425    1.306633   -0.199107
C      4.763916    2.541235   -0.506294
C      4.514296    0.237418    0.121111
C      3.406896    2.725499   -0.498968
C     -2.544237   -1.591689   -0.846311
C      2.089211   -1.893647    0.793353
C     -3.822092    0.478204   -0.717833
C     -1.417318   -2.422404   -0.295347
C      0.721646   -2.493729    0.665272
C     -4.133778    1.767010   -0.004848
C     -1.433913    0.408230   -0.056165
C     -2.759721   -0.325172   -0.026871
C      3.155135    0.407114    0.132428
C      2.108838   -0.439895    0.402970
C      2.612969    1.630991   -0.172693
C     -0.327752   -0.423382    0.499706
C      0.951390    0.279429    0.258643
N      1.296945    1.519755   -0.087947
N     -0.204419   -1.724303   -0.104445
O     -4.591018    1.514941    1.307013
H      6.410097    1.217504   -0.220544
H      5.375602    3.399030   -0.761559
H      4.917954   -0.723301    0.361534
H      2.970979    3.682503   -0.737054
H     -2.197591   -1.226207   -1.856626
H     -3.442905   -2.202325   -0.927479
H      2.855291   -2.422964    0.189950
H      2.451971   -1.916598    1.852171
H     -3.524829    0.704579   -1.741208
H     -4.765211   -0.120878   -0.725005
H     -1.244835   -3.250777   -1.016228
H     -1.810398   -2.917270    0.629397
H      0.350706   -2.736490    1.687505
H      0.843939   -3.488174    0.160607
H     -3.322766    2.497116   -0.021854
H     -4.996072    2.229302   -0.542072
H     -1.462532    1.360823    0.478775
H     -1.205575    0.566447   -1.150579
H     -3.042629   -0.622951    0.990758
H     -0.463664   -0.490467    1.614311
H      0.628348    2.328444   -0.276590
H     -5.038299    0.630415    1.348121
