48

C      3.517942    2.446561    0.077057
C     -4.494856    1.552127    0.513297
C     -3.419964    3.769100    0.710110
C     -2.094533   -2.510680   -2.460178
C      3.000153    0.992966    0.029345
C      3.916385    0.188594    0.864020
C      3.693972   -1.272281    0.981237
C      2.470222   -1.787684    1.595786
C      1.142388   -1.506950    1.056166
C     -2.097243    1.882871   -0.116647
C     -3.214070    2.274054    0.827063
C     -0.672620   -2.296140   -2.031175
C      0.859290   -1.882177   -0.342011
C     -1.809568    0.427387   -0.041944
C     -0.548127   -1.529859   -0.752447
C      0.873047   -3.311485   -0.649754
O     -2.466353   -0.322975    0.743089
O      1.530301   -4.266138   -0.154946
O     -0.035613   -3.527619   -1.680510
O     -0.850105   -0.203003   -0.783718
H      2.717889    3.139972   -0.248640
H      4.354955    2.510691   -0.623425
H      3.852422    2.698598    1.097588
H     -4.623532    0.635869    1.149897
H     -5.362009    2.209195    0.773463
H     -4.601342    1.270950   -0.538669
H     -3.457517    4.250589    1.715927
H     -4.418845    3.991261    0.242064
H     -2.652121    4.237059    0.084255
H     -2.128950   -3.504234   -2.984403
H     -2.807143   -2.473425   -1.631478
H     -2.409206   -1.733741   -3.203904
H      3.048836    0.615723   -1.017686
H      1.958370    1.067440    0.357931
H      4.996537    0.424924    0.601205
H      3.854171    0.618845    1.926688
H      4.555874   -1.658431    1.640464
H      3.945410   -1.788822    0.000582
H      2.581011   -2.898980    1.879527
H      2.460765   -1.343218    2.659451
H      0.779499   -0.508044    1.295182
H      0.430766   -2.181362    1.678475
H     -2.459398    2.095204   -1.144626
H     -1.202942    2.509204    0.064817
H     -2.925676    1.997819    1.874281
H     -0.110150   -1.884944   -2.866998
H      1.546236   -1.374452   -1.063686
H     -1.224560   -2.040362   -0.005489
