29

C     -2.081153   -1.573887    0.060581
C     -0.766106   -1.303384    0.057760
C     -1.866453    0.645317   -0.707832
C      2.373339    1.533874    0.880296
C     -4.050361   -0.101838    0.096386
C     -2.820641   -0.517021   -0.675325
C     -0.518993   -0.047486   -0.677884
C      3.739810    1.358501    0.957013
C      1.643480    0.628025    0.124813
C      3.538717   -0.547133   -0.434965
Cl     4.756841    2.452207    1.889230
N      4.093740   -1.540256   -1.062773
N      0.384544    0.799530    0.061215
N      4.271821    0.320588    0.293736
N      2.202518   -0.393043   -0.522422
O     -4.703611    0.875051   -0.617964
H     -2.499425   -2.440629    0.537735
H     -0.007840   -1.918188    0.526335
H     -1.969290    1.233337    0.235233
H     -1.965544    1.283622   -1.592843
H      1.886483    2.351414    1.392742
H     -3.756018    0.286705    1.072562
H     -4.664630   -1.019585    0.230161
H     -3.060134   -0.811141   -1.697901
H     -0.154574   -0.247605   -1.708083
H      3.525329   -2.198838   -1.617619
H      5.305929    0.200919    0.361119
H      1.642864   -1.067434   -1.087272
H     -4.480645    1.758378   -0.234694
