41

C      3.577638   -1.162422    1.871547
C     -3.498049   -2.128789    0.894016
C      4.672119   -0.747083    0.967161
C      4.311808   -0.276656   -0.391544
C      3.449246    0.924304   -0.517664
C      2.068775    0.829372    0.003316
C      1.237919   -0.221415   -0.704266
C     -0.164980   -0.335193   -0.159373
C     -0.856742    0.972260   -0.318663
C     -3.869374   -0.954952    0.424509
C     -2.287663    0.946392    0.198070
C     -3.137265   -0.057275   -0.505671
C     -4.270185    0.778335   -1.069363
C     -5.119873   -0.281419    0.738250
C     -3.614166    2.102588   -1.217639
O     -5.989869   -0.682412    1.577158
O     -3.756939    2.929909   -2.176987
O     -2.820143    2.229740   -0.085294
O     -5.223393    0.892086   -0.033525
H      2.673709   -1.528320    1.376357
H      3.314640   -0.364927    2.618405
H      3.905864   -2.043826    2.522761
H     -2.560069   -2.602197    0.640309
H     -4.150645   -2.658656    1.566985
H      5.385957   -1.636998    0.910086
H      5.308255    0.016927    1.517368
H      5.273969   -0.024791   -0.939803
H      3.832816   -1.137295   -0.959723
H      3.954552    1.789017   -0.010800
H      3.391515    1.164641   -1.612067
H      1.577702    1.828428   -0.249914
H      1.947204    0.710954    1.080465
H      1.172079    0.102800   -1.793118
H      1.707349   -1.201357   -0.739162
H     -0.053184   -0.621012    0.917610
H     -0.680164   -1.161129   -0.668858
H     -0.823580    1.308857   -1.352877
H     -0.341769    1.724372    0.344393
H     -2.258216    0.802286    1.300184
H     -2.611986   -0.613886   -1.303513
H     -4.674860    0.388741   -2.005676
