23

C      3.809120    0.347361    0.565541
C     -3.240082   -0.365255    0.715025
C     -3.286120    1.005994    0.741730
C     -2.053490   -1.020240    0.418677
C     -2.130809    1.701730    0.468260
C     -0.888722   -0.333934    0.142802
C     -0.947474    1.037979    0.172609
C      0.323363   -1.094351   -0.160962
C      1.521732   -0.559015    0.564634
Cl     0.475011    1.967754   -0.163279
N      0.583412   -1.109558   -1.579679
O      1.493511   -0.465639    1.818708
O      2.670386   -0.157072   -0.073301
H      4.691129   -0.184041    0.135043
H      3.831297    0.159805    1.649158
H      3.935755    1.438839    0.419247
H     -4.160098   -0.902728    0.932994
H     -4.223165    1.517797    0.975687
H     -2.091365   -2.105471    0.415631
H     -2.195256    2.791096    0.496271
H      0.220249   -2.144708    0.163905
H      1.582012   -1.192998   -1.798698
H      0.079602   -0.333344   -2.025715
