40

C      5.137641    0.674727   -1.843233
C     -3.644286   -1.118218    1.204057
C      3.886024    0.986088   -1.574474
C      2.944908   -0.039992   -1.114608
C      2.435114    0.365777    0.249011
C     -1.720039    1.796408   -1.665026
C      1.460336   -0.603222    0.833536
C     -2.490874    1.569532   -0.379912
C     -1.319328   -1.162847    1.942195
C     -0.637983   -1.820866    0.767842
C     -0.481645    0.948480   -1.491933
C     -2.393529   -0.240837    1.350111
C      0.224906   -0.803140    0.007941
C     -1.981929    0.165604   -0.022198
N     -0.548942    0.404332   -0.148097
H      5.473031   -0.340000   -1.724738
H      5.804112    1.457040   -2.180313
H     -3.716605   -1.522487    0.165749
H     -4.569453   -0.526754    1.387481
H     -3.593957   -1.999813    1.868693
H      3.522478    1.994269   -1.684137
H      2.143098   -0.229987   -1.844321
H      3.487263   -0.996912   -0.984019
H      2.028235    1.410862    0.241154
H      3.318768    0.398436    0.919992
H     -1.496140    2.859638   -1.851120
H     -2.365110    1.362673   -2.480992
H      1.971889   -1.592069    0.900933
H      1.225670   -0.295181    1.853149
H     -3.568702    1.599900   -0.512546
H     -2.098016    2.231198    0.417305
H     -0.644004   -0.616324    2.603057
H     -1.805233   -1.968062    2.527943
H     -1.408547   -2.261382    0.131625
H      0.037696   -2.601902    1.193986
H     -0.490156    0.082666   -2.212572
H      0.407190    1.588047   -1.645879
H     -2.622163    0.598778    2.031910
H      0.451173   -1.261093   -0.962425
H     -2.362890   -0.493368   -0.829856
