39

C      4.100779   -0.557428    0.980951
C      3.169751    1.759744    0.430610
C     -1.562000    2.163633   -0.653305
C     -0.416717    0.403826    1.469648
C     -1.958468   -2.096403   -0.050177
C     -3.125857   -1.215629   -0.203413
C      0.455171   -2.252396   -0.103371
C      0.804266    0.476814   -0.689434
C      3.021566    0.280058    0.414996
C     -1.676658    0.662428   -0.604275
C     -0.616176   -1.440316   -0.062733
C      1.948427   -0.272308   -0.094800
C     -2.846602    0.204105    0.238742
C      1.793926   -1.731235   -0.120528
C     -0.449303    0.014456   -0.004249
O     -3.957462    1.023810    0.081375
O      2.772508   -2.493510   -0.155411
H      4.748541    0.066933    1.601438
H      4.668023   -1.017106    0.149327
H      3.665979   -1.330852    1.661706
H      2.281096    2.277467    0.830805
H      3.394418    2.057003   -0.626636
H      4.022868    2.050283    1.062486
H     -0.749931    2.567992   -0.039602
H     -2.561212    2.565085   -0.334416
H     -1.426020    2.522346   -1.699796
H     -0.802586   -0.388376    2.119837
H      0.650170    0.591164    1.744494
H     -0.974398    1.336444    1.678356
H     -1.987313   -2.878951   -0.842779
H     -2.038255   -2.606863    0.957627
H     -3.435494   -1.121636   -1.287828
H     -4.034823   -1.596375    0.341855
H      0.233746   -3.319055   -0.122000
H      0.718960    0.228975   -1.762120
H      0.966897    1.544407   -0.546963
H     -1.774065    0.282173   -1.645275
H     -2.587195    0.154119    1.310892
H     -4.436556    1.085176    0.944049
