31

C      4.109189   -0.710833    0.440956
C      3.327334    1.558303   -0.403464
C      1.760050   -0.234033    0.206910
C     -1.122121   -1.075819   -0.817474
C      2.996555    0.210067    0.077648
C     -0.780223    0.124409    0.010905
C      0.599607    0.579197   -0.118527
C     -2.396197   -1.661308   -0.280857
C     -1.792251    1.194606   -0.334060
C     -3.362141   -0.678473    0.253078
C     -3.128936    0.703875    0.146827
O      0.803685    1.744783   -0.536596
O     -2.139656   -2.635277    0.691308
O     -1.443374    2.424693    0.189737
O     -4.012114    0.139321   -0.752415
H      3.753026   -1.734734    0.557937
H      4.885977   -0.668282   -0.350500
H      4.580329   -0.344735    1.383134
H      4.422222    1.702512   -0.431233
H      2.948192    1.683393   -1.445134
H      2.902551    2.358119    0.267227
H      1.565646   -1.252306    0.571715
H     -1.355225   -0.697684   -1.850932
H     -0.324115   -1.811036   -0.897284
H     -0.945977   -0.131144    1.097095
H     -2.894640   -2.212364   -1.127679
H     -1.819470    1.273400   -1.440073
H     -4.052042   -1.077825    1.037194
H     -3.597432    1.396344    0.896810
H     -1.247340   -3.052810    0.561799
H     -2.241108    2.885640    0.545149
