34

C      3.334070    0.927013   -1.341140
C      3.492554   -0.026856    0.967447
C     -2.949354    1.531248    1.053152
C      0.322275   -0.247242   -1.678382
C      0.374148   -1.021269    0.541723
C     -0.987572    0.205287   -1.479476
C     -0.924572   -0.575074    0.746288
C      2.412890   -1.355122   -0.859450
C     -3.924507   -0.623173    0.249146
C      3.445442   -0.314335   -0.517612
C     -2.977269    0.517174   -0.070767
C      1.023471   -0.869424   -0.665341
C     -1.599814    0.037940   -0.270113
O     -5.210078   -0.165548    0.434868
H      2.700891    1.678946   -0.824370
H      4.357805    1.395401   -1.384844
H      3.012686    0.707685   -2.357815
H      3.617503   -0.962024    1.520137
H      4.378146    0.640490    1.123149
H      2.617801    0.555614    1.311352
H     -2.266823    1.141811    1.827317
H     -2.431957    2.441405    0.633718
H     -3.952485    1.768649    1.424195
H      0.759660   -0.094261   -2.640801
H      0.903704   -1.502857    1.341272
H     -1.515764    0.693401   -2.299863
H     -1.396674   -0.718461    1.721151
H      2.631609   -2.239074   -0.195088
H      2.572467   -1.729643   -1.891195
H     -3.904946   -1.380035   -0.559948
H     -3.569545   -1.159356    1.166643
H      4.440501   -0.779444   -0.764758
H     -3.366994    0.989584   -1.006768
H     -5.419267    0.531550   -0.235318
