23

C      3.236644   -1.334248   -0.749725
C     -2.013718   -1.689243   -0.317637
C     -3.137261   -0.915530   -0.466641
C     -0.801096   -1.122653    0.092795
C     -3.042803    0.432399   -0.202480
C     -0.689271    0.206768    0.357919
C     -1.847718    0.975281    0.199170
C      0.561547    0.848082    0.797581
C      1.752117    0.470727    0.041285
Cl    -1.742125    2.682861    0.530222
N      0.357142    2.286658    0.841849
O      2.484341    1.317802   -0.545213
O      2.127401   -0.841248   -0.061971
H      3.059807   -1.425087   -1.841545
H      4.147170   -0.743694   -0.618335
H      3.460217   -2.350015   -0.322317
H     -2.056948   -2.747005   -0.517060
H     -4.101426   -1.318574   -0.784541
H      0.046314   -1.766842    0.198226
H     -3.938955    1.061336   -0.319150
H      0.728274    0.536587    1.861485
H      0.883794    2.737402    0.060322
H      0.526554    2.698235    1.765762
