49

C     -3.964682   -1.759555    0.913327
C     -5.087861   -0.793311    0.561657
C     -2.696964   -1.014577    0.571376
C      1.844694   -2.708869   -0.073694
C      3.121773   -2.975193    0.369582
C      0.887065    3.501895   -0.229115
C      0.083859    2.436416   -0.588129
C     -4.814875   -0.107261   -0.743270
C      0.185286   -1.159600   -0.635593
C      3.569550   -0.617103    0.591429
C      2.601563    1.985417    0.333310
C      1.456446   -1.404616   -0.176466
C      3.971526   -1.943180    0.699956
C      2.136267    3.282453    0.229159
C      0.505681    1.144414   -0.493283
C      2.285382   -0.380464    0.142063
C      1.805766    0.902456   -0.020690
C     -0.335051    0.101090   -0.809083
C     -2.583002   -0.929455   -0.916660
C     -1.708553    0.266332   -1.327189
C      5.353156   -2.241734    1.186887
C      3.050620    4.370863    0.689878
F      6.285250   -1.522668    0.440069
F      5.582482   -3.570997    1.099805
F      5.452825   -1.895361    2.526095
F      3.500321    4.092903    1.980609
F      4.131831    4.535813   -0.113561
F      2.361418    5.565306    0.714069
N     -3.890788   -0.871522   -1.561318
O     -2.358479    1.440300   -1.116179
H     -3.983229   -2.014733    2.014824
H     -4.045915   -2.606085    0.260044
H     -6.041894   -1.292807    0.657358
H     -5.076377    0.016583    1.365195
H     -2.778298   -0.012651    1.055608
H     -1.804186   -1.590873    0.936673
H      1.181550   -3.529390   -0.332608
H      3.508272   -4.013166    0.467137
H      0.469141    4.482104   -0.338790
H     -0.909358    2.640187   -0.975659
H     -4.418665    0.891553   -0.515209
H     -5.763995   -0.008087   -1.313730
H     -0.436999   -2.026404   -0.909221
H      4.271309    0.146788    0.850728
H      3.596272    1.799662    0.687415
H     -2.177997   -1.893488   -1.269529
H     -1.604807    0.165266   -2.424878
H     -3.898549   -0.674220   -2.538128
H     -2.818779    1.789568   -1.922270
