30

C     -1.567173    0.100395    2.018981
C      2.580609   -1.075089    0.097944
C      1.548266    1.167847    0.511232
C      0.168130   -1.693884   -0.816550
C     -0.428942    0.621430   -1.557165
C     -1.139071   -0.255923    0.604733
C      0.690379   -0.351302   -1.346085
C      0.162068   -0.985681    0.553298
C     -1.227961    0.910076   -0.336032
C      1.318211   -0.207198    0.048178
N     -2.642694    1.062079   -0.719355
H     -1.110392    1.007083    2.401817
H     -2.689886    0.219656    1.985217
H     -1.392178   -0.808513    2.632085
H      3.463445   -0.385623    0.237972
H      2.760378   -1.610263   -0.833266
H      2.545784   -1.711681    0.997345
H      2.647611    1.316909    0.732510
H      1.366943    1.867382   -0.357655
H      1.026219    1.481095    1.421444
H     -0.841829   -1.947387   -1.169518
H      0.911203   -2.487983   -0.894042
H     -0.014431    1.516698   -2.040023
H     -1.115840    0.157788   -2.320513
H     -1.920733   -0.996321    0.252071
H      1.400701   -0.411300   -2.157799
H      0.326077   -1.642328    1.403352
H     -0.975227    1.877979    0.159258
H     -3.146186    1.580825    0.050803
H     -2.703482    1.683233   -1.560235
