23

C      0.031976    0.405031    1.361810
C      1.306387    0.897767    1.456872
C     -1.697228   -0.864444    0.122683
C      0.548530   -0.582074   -0.792161
C     -4.036279   -0.277280   -0.756862
C      4.076248    0.306826   -0.822932
C     -0.322135   -0.324227    0.241108
C     -2.595618    0.141287   -0.566397
C      2.200127    0.660412    0.446689
C      1.837349   -0.069647   -0.669939
O     -3.102513   -0.151415   -1.824154
O      3.533250    1.031731    0.279891
O      2.932969   -0.146616   -1.512949
H     -0.675153    0.584751    2.146151
H      1.623894    1.474857    2.319860
H     -2.103759   -0.974384    1.163284
H     -1.745998   -1.828174   -0.402986
H      0.309711   -1.140107   -1.670269
H     -4.791347    0.508673   -0.637841
H     -4.305554   -1.349037   -0.560458
H      4.687922    0.997328   -1.442541
H      4.695640   -0.505547   -0.429134
H     -2.408419    1.204286   -0.354033
