45

C      5.423812    0.867205    0.629063
C      5.323517   -1.509777   -0.296979
C      1.081096    1.410061   -0.994209
C     -3.611730    1.978636   -0.271191
C     -2.513802   -1.633854    0.431749
C      2.460594   -1.439235   -0.088488
C      3.319684   -0.303177    0.300309
C      1.619259   -1.127735   -1.254392
C     -0.652044   -0.231394   -1.269805
C     -1.693059    0.781444   -1.227837
C     -4.285907   -0.300163    1.431300
C     -5.279673    0.752765    1.531807
C      4.637065   -0.311852    0.217587
C      0.682314   -0.006949   -1.164604
C     -2.630732    0.810498   -0.052612
C     -3.424875   -0.408301    0.216004
O     -5.206603    1.756035    2.255555
H      4.868066    1.820404    0.512098
H      5.723052    0.818150    1.701068
H      6.361874    0.984354    0.034721
H      6.362004   -1.186946   -0.612524
H      5.502261   -2.293504    0.468185
H      4.876734   -1.911289   -1.237831
H      0.866576    1.707282    0.042393
H      2.171083    1.559507   -1.255238
H      0.569358    2.061162   -1.740928
H     -4.614197    1.657622   -0.540012
H     -3.501286    2.707542    0.529196
H     -3.228276    2.523413   -1.204640
H     -1.517149   -1.381807    0.754984
H     -2.972911   -2.175415    1.323332
H     -2.634052   -2.332743   -0.403341
H      3.139763   -2.312021   -0.317756
H      1.885308   -1.796902    0.801342
H      2.876875    0.629003    0.716089
H      2.254119   -0.941331   -2.183961
H      1.051715   -2.061617   -1.555308
H     -0.900840   -1.274585   -1.435756
H     -2.404291    0.624295   -2.122675
H     -1.333700    1.834238   -1.449650
H     -3.577127   -0.162346    2.298663
H     -4.776997   -1.303469    1.607096
H     -6.205773    0.701151    0.927853
H     -2.017578    1.060980    0.846278
H     -4.073527   -0.639335   -0.653718
