36

C      3.325618    2.921986    3.548810
C     -2.728977   -1.886733   -0.497598
C     -3.587321   -1.330298    0.427466
C      2.088095    1.338263   -0.873735
C      2.039679    1.179176    0.432185
C     -0.934793   -1.571156    1.006491
C     -0.447555   -2.619409   -1.219406
C     -1.383082   -2.021723   -0.233460
C     -1.798517   -1.015749    1.926774
C      0.127438   -1.548049   -2.132403
C     -3.143892   -0.884794    1.653602
C      1.421616    0.389723   -1.794783
C      2.705637    2.130345    1.300841
C     -0.942480   -0.858023   -2.877293
Cl    -1.229355   -0.449355    3.485903
N      0.797857   -0.588991   -1.284104
O     -4.031338   -0.320976    2.583361
O      1.469328    0.552262   -3.155159
O      3.319868    3.093513    0.790510
O     -1.124123    0.366948   -2.703204
O     -1.760944   -1.527026   -3.771800
O      2.687732    2.013515    2.673161
H      3.531830    3.892094    3.092548
H      4.312464    2.471273    3.811566
H      2.774852    3.074462    4.492208
H     -3.105260   -2.230893   -1.460316
H     -4.644180   -1.223444    0.221373
H      2.633985    2.189683   -1.253047
H      1.513988    0.353711    0.883217
H      0.125730   -1.669611    1.232884
H      0.348660   -3.179522   -0.699633
H     -0.962795   -3.360557   -1.874642
H      0.844675   -2.006987   -2.866379
H     -3.708122    0.006734    3.483445
H      1.576338   -0.289907   -3.737951
H     -2.112655   -1.083300   -4.611433
