39

C     -3.155619   -1.493150   -0.419194
C     -3.392081    0.848297   -0.922369
C     -0.247405    1.615470   -1.633345
C     -1.561506    1.068604    1.767603
C      3.352999   -0.036638   -0.993819
C      2.071265    0.526042   -1.085425
C     -2.569655    0.123449    1.262428
C     -0.497085    1.528687    0.832449
C      2.592030   -1.482588    0.690098
C      3.640082   -1.047965   -0.108595
C      1.060454    0.070085   -0.279048
C      1.327518   -0.953838    0.625113
C      4.961694   -1.630712   -0.011349
C     -2.488080   -0.112825   -0.217097
C     -0.294318    0.695389   -0.377762
O      0.278754   -1.380143    1.413562
O      5.176941   -2.543200    0.803013
O      5.968420   -1.169256   -0.821529
O     -1.229134   -0.246488   -0.689416
H     -4.262962   -1.372613   -0.304334
H     -2.779901   -2.228151    0.290269
H     -2.969871   -1.752063   -1.487280
H     -4.443724    0.540809   -0.634296
H     -3.304576    1.892942   -0.611554
H     -3.379137    0.732433   -2.023859
H      0.380926    2.476222   -1.445082
H      0.111666    1.072241   -2.520115
H     -1.305207    1.906533   -1.909885
H     -1.061138    0.601494    2.674911
H     -2.081285    1.991657    2.219210
H      4.145394    0.344827   -1.649546
H      1.949683    1.330680   -1.824151
H     -3.601980    0.508594    1.526117
H     -2.472154   -0.854521    1.827441
H     -0.631277    2.623530    0.565332
H      0.464701    1.587447    1.448439
H      2.811026   -2.278122    1.388940
H      0.475827   -2.131344    2.076482
H      6.958717   -1.371819   -0.640728
