39

C     -2.464631    1.159548   -1.789151
C     -3.616461   -0.329412   -0.248025
C     -0.540159   -2.402564    0.411831
C     -1.408850    1.014023    1.814762
C      2.387118    0.571394   -1.454819
C      1.113633    0.164935   -1.084939
C     -2.138677    1.451802    0.586322
C     -1.092751   -0.440848    1.697894
C      3.197453   -0.301652    0.569276
C      3.448439    0.346779   -0.638306
C      0.847249   -0.479703    0.109759
C      1.930508   -0.699927    0.925102
C      4.810050    0.749196   -0.969495
C     -2.304444    0.400565   -0.456870
C     -0.521801   -0.857370    0.388769
O      1.731442   -1.330829    2.115700
O      5.096548    1.333169   -2.036109
O      5.856006    0.491580   -0.092299
O     -1.319436   -0.484702   -0.631379
H     -1.625267    1.892521   -1.868185
H     -2.421987    0.403749   -2.585767
H     -3.453063    1.668701   -1.797864
H     -4.049500   -0.115824    0.753389
H     -3.481233   -1.438833   -0.395654
H     -4.397549   -0.040470   -0.980763
H     -1.571899   -2.758500    0.212905
H      0.116869   -2.813544   -0.359213
H     -0.289242   -2.763411    1.442099
H     -0.523475    1.651757    2.002574
H     -2.047365    1.130888    2.740555
H      2.576333    1.077414   -2.399506
H      0.330700    0.393279   -1.812632
H     -1.644766    2.371753    0.184586
H     -3.159665    1.786100    0.892854
H     -0.506011   -0.828113    2.574918
H     -2.065343   -0.977672    1.790675
H      4.066349   -0.470525    1.207744
H      2.413275   -1.555924    2.801533
H      6.721605    1.030670   -0.084553
