61

C      3.980503    1.109741   -1.416845
C      4.644740   -0.795006   -0.060362
C      1.443194   -0.312191    1.986844
C      0.027167   -1.572273   -2.050304
C     -6.002014    2.127207   -0.045872
C     -1.598528    1.272277    2.834771
C      2.612985    2.166892    1.198320
C      2.277303   -1.847650   -0.265142
C      3.724873    1.190586    0.995058
C      1.350493    1.710785    0.503469
C      0.938761   -2.436482    0.030403
C     -3.665210    0.504069    0.132152
C     -3.695420   -1.997550   -1.131410
C     -2.577510   -0.323805    0.178881
C     -4.795906   -1.169529   -1.182753
C     -2.581830   -1.547563   -0.435860
C     -4.770548    0.059627   -0.557801
C      2.227188   -0.350127   -0.350989
C     -1.327141    0.042588    0.934042
C     -0.173996   -0.187464    0.042944
C      3.569261    0.294474   -0.181241
C      1.167022    0.213470    0.611225
C     -0.177113   -1.573970   -0.527837
O     -5.948200   -1.585124   -1.877452
O     -5.893484    0.866527   -0.629902
O     -1.449662    1.314296    1.458514
O     -1.400259   -2.280463   -0.305128
H      3.853610    2.206824   -1.200216
H      5.020638    0.951901   -1.691785
H      3.246351    0.889043   -2.218783
H      4.579801   -1.534007   -0.858050
H      4.711550   -1.194144    0.958187
H      5.614445   -0.240432   -0.230446
H      1.716980    0.531594    2.673537
H      0.620268   -0.841861    2.463735
H      2.307378   -1.040912    2.006598
H     -0.162975   -0.578835   -2.491602
H      0.989648   -2.036930   -2.343806
H     -0.736859   -2.235606   -2.560238
H     -5.347998    2.862629   -0.599825
H     -5.674698    2.062479    1.002772
H     -7.071112    2.453923   -0.137660
H     -2.516616    0.681535    3.099739
H     -1.795211    2.310129    3.221237
H     -0.769249    0.845078    3.395650
H      2.855446    3.174022    0.746043
H      2.443022    2.395430    2.281304
H      3.004227   -2.207312    0.491536
H      2.697046   -2.213082   -1.248015
H      4.650457    1.813035    0.795800
H      3.999967    0.648368    1.943577
H      1.481000    1.936349   -0.588478
H      0.535751    2.318500    0.869522
H      0.882288   -3.391715   -0.575080
H      0.781231   -2.762929    1.065365
H     -3.616805    1.459563    0.630089
H     -3.673616   -2.961881   -1.601752
H      1.867519   -0.054156   -1.357448
H     -1.341321   -0.672938    1.788532
H     -0.311901    0.498490   -0.849613
H     -6.746933   -0.965496   -1.905402
