48

C     -7.775671   -2.020059   -0.977107
C     -6.701614   -1.868088   -1.821533
C     -8.017017   -1.078497    0.008002
C     -3.109252    1.543335    2.406324
C     -1.898041    1.106137    1.855290
C     -5.859069   -0.762347   -1.679763
C     -7.157868    0.019464    0.128461
C     -4.196733    1.576720    1.555131
C      3.518891   -0.625218   -1.234922
C      4.345457    0.954499    0.310757
C      2.244014   -0.332388   -0.849003
C      3.055393    1.245975    0.696362
C     -2.925340    0.783449   -0.276555
C      7.046281    0.703742   -1.021996
C     -0.507181    0.270117   -0.045921
C     -1.784507    0.726846    0.535256
C      4.591769    0.007424   -0.667544
C      1.974375    0.611254    0.127444
C     -6.085649    0.180931   -0.706568
C     -4.131170    1.209449    0.237622
C      5.979168   -0.301611   -1.077811
C      6.973822   -0.309783    0.063818
C      7.869005   -1.482381    0.057737
N      0.659468    0.910490    0.522676
O      8.204278   -2.018293    1.126566
O      8.336223   -1.987282   -1.131317
O     -5.249573    1.258647   -0.581812
H     -8.427091   -2.895188   -1.103199
H     -6.533739   -2.610486   -2.578048
H     -8.866637   -1.226070    0.653670
H     -3.142672    1.825690    3.434458
H     -1.001917    1.051602    2.467561
H     -5.020981   -0.646608   -2.340987
H     -7.346362    0.756103    0.898872
H     -5.147174    1.909463    1.948823
H      3.669389   -1.383639   -2.015100
H      5.201815    1.449898    0.753851
H      1.390622   -0.823428   -1.287952
H      2.890130    1.993238    1.466241
H     -2.863624    0.492964   -1.309754
H      6.792406    1.754486   -0.746406
H      7.885891    0.620135   -1.746460
H     -0.493803    0.529414   -1.140554
H     -0.429978   -0.835839    0.016465
H      6.069046   -1.079715   -1.876257
H      6.642280    0.035928    1.046888
H      0.505062    1.630762    1.260415
H      8.827880   -2.871241   -1.228805
