48

C     -7.576036    1.958685   -0.616729
C     -6.603579    1.392788   -1.401360
C     -7.646500    1.597634    0.714769
C     -3.084296   -3.143811   -1.212962
C     -1.859998   -2.556563   -1.311863
C     -5.720024    0.475987   -0.837626
C     -6.758651    0.677768    1.276643
C     -4.091408   -2.570256   -0.455968
C      3.921236   -0.503359    1.710984
C      3.621971    0.847960   -0.195243
C      2.631587   -1.017662    1.563614
C      2.333351    0.335645   -0.344491
C     -2.646216   -0.811105    0.108822
C      6.136995    2.348086    0.523252
C     -0.329105   -0.680875   -0.704291
C     -1.635909   -1.372300   -0.641517
C      4.433091    0.432448    0.838099
C      1.828511   -0.598103    0.530170
C     -5.788909    0.117162    0.482550
C     -3.893986   -1.386324    0.224573
C      5.814496    0.980928    0.999481
C      6.538489    1.192674   -0.313555
C      7.916609    0.691196   -0.347656
N      0.494455   -1.125173    0.371664
O      8.412083    0.148677   -1.361416
O      8.725881    0.810046    0.775013
O     -4.889161   -0.794945    0.988440
H     -8.243334    2.661875   -1.076263
H     -6.482773    1.623275   -2.452654
H     -8.422933    2.059524    1.308967
H     -3.236525   -4.075485   -1.749622
H     -1.036025   -2.962694   -1.890774
H     -4.948804    0.023861   -1.448820
H     -6.884417    0.454320    2.318425
H     -5.064637   -3.032183   -0.374308
H      4.558123   -0.828984    2.521335
H      4.014806    1.587135   -0.891894
H      2.246836   -1.762527    2.272605
H      1.703292    0.661734   -1.151286
H     -2.463500    0.130504    0.639968
H      5.266342    2.955060    0.185554
H      6.869494    2.932281    1.110860
H     -0.544068    0.421518   -0.607729
H      0.150458   -0.779653   -1.701195
H      6.401722    0.598907    1.856276
H      5.974080    1.053488   -1.253823
H      0.121043   -1.834351    1.041196
H      9.735843    0.665186    0.734195
