55

C      7.084159   -0.586772   -0.778778
C     -4.318998    4.650428    0.155486
C     -0.497193   -3.721916    2.828928
C      2.619002    2.766932   -2.492970
C     -1.220255    2.377114   -2.572130
C     -3.548634   -1.940221    1.643149
C     -2.704311   -3.032792    2.198553
C      0.599219   -2.472286    0.810054
C     -3.462146    0.247016    0.594550
C      2.603025   -1.539608   -0.287850
C      1.300593    0.739888   -1.100263
C      5.657602   -0.388314   -0.419763
C     -3.551399    3.426988    0.499135
C     -2.788125   -0.913953    0.910324
C      1.229096   -1.395546    0.014087
C      0.620678   -0.232698   -0.418849
C     -0.853509   -2.363260    0.864384
C      2.669925    0.575735   -1.390651
C      3.279597   -0.566787   -0.972482
C     -2.798968    1.239061   -0.089287
C     -1.447549   -1.058988    0.532393
C     -0.822904   -0.037691   -0.147052
C     -1.449868    1.117556   -0.482494
N     -1.291405   -2.702384    2.214989
O      5.346707    0.116906    0.701614
O     -2.954622    3.359819    1.595436
O      3.273605    1.597476   -2.078337
O     -0.972665    2.206341   -1.160673
O      4.616264   -0.730364   -1.256045
O     -3.509546    2.391560   -0.390418
H      7.709166   -0.163478    0.013698
H      7.322489   -0.111329   -1.762835
H      7.237034   -1.685335   -0.906997
H     -3.595211    5.474842    0.038143
H     -4.907901    4.499438   -0.769178
H     -5.012748    4.854984    1.015389
H     -1.140226   -4.518279    3.303741
H      0.221868   -3.306487    3.573522
H      0.108351   -4.248149    2.067070
H      3.253216    3.422606   -3.091210
H      1.705957    2.547247   -3.100949
H      2.224325    3.264039   -1.562192
H     -0.866623    1.523191   -3.149089
H     -0.618387    3.262533   -2.863222
H     -2.277082    2.643496   -2.676512
H     -4.334631   -2.376562    1.003994
H     -4.050896   -1.428608    2.502626
H     -2.988803   -3.285829    3.243909
H     -2.792422   -3.979164    1.614162
H      1.042743   -2.463208    1.856517
H      0.918012   -3.443382    0.359875
H     -4.515424    0.375912    0.887378
H      3.077606   -2.461141    0.056912
H      0.857070    1.653235   -1.396894
H     -1.284858   -3.179812    0.217104
