37

C      0.199628    2.028835    1.866276
C     -2.926424    0.869773    0.441565
C      3.741212   -2.121309    0.860818
C     -1.768020   -1.797097    0.179791
C     -0.262311   -0.953969   -1.554413
C     -0.104241    2.085226   -0.525505
C     -1.381360    1.759283   -1.228394
C      2.262001   -0.020888    0.727100
C      1.181812   -0.788040    0.839865
C     -0.003799    1.376348    0.756048
C     -1.980306    0.517970   -0.683202
C      3.572288   -0.659146    0.734052
C     -0.121028   -0.126383    0.830630
C     -1.023350   -0.582835   -0.311923
O      4.614782    0.049960    0.628630
H      0.271419    1.501260    2.802184
H      0.301210    3.104632    1.878048
H     -3.803606    0.181689    0.447280
H     -3.333233    1.877837    0.216744
H     -2.440014    0.933462    1.432134
H      3.032616   -2.717421    0.263190
H      4.758543   -2.420868    0.476639
H      3.717075   -2.463923    1.935318
H     -2.739563   -1.936924   -0.335226
H     -1.109363   -2.697786    0.056020
H     -1.987884   -1.743979    1.261485
H     -0.596608   -1.959474   -1.875435
H     -0.493477   -0.286389   -2.417999
H      0.827933   -1.042724   -1.381400
H      0.044386    3.185803   -0.423620
H      0.718356    1.688333   -1.205915
H     -1.227340    1.605598   -2.330717
H     -2.146384    2.582453   -1.092260
H      2.194299    1.061180    0.630014
H      1.317005   -1.853975    0.932892
H     -2.659843    0.107256   -1.496784
H     -0.646413   -0.343767    1.773519
