30

C     -1.920377   -2.781481    0.553755
C     -1.382920    2.948935    0.637453
C      3.552054   -1.394999    0.077450
C      1.782596    1.105890    0.403982
C     -1.909051   -0.284259    0.275399
C     -1.586040   -1.621230   -0.358633
C      0.894445    2.178979   -0.041572
C      1.448427   -0.123290    0.073618
C     -0.557698    1.880361   -0.039470
C     -0.858276    0.596486   -0.328484
C      0.219288   -0.337554   -0.713870
O      1.372429    3.276805   -0.397343
O      0.611166   -0.167643   -2.065951
O      2.197318   -1.227465    0.430812
O     -0.244789   -1.641948   -0.611273
O     -1.174804    1.527419   -1.297547
H     -1.297021   -3.644753    0.184861
H     -1.584728   -2.586723    1.577199
H     -2.961770   -3.108724    0.470063
H     -2.455200    2.703729    0.534200
H     -1.235432    3.885139    0.024958
H     -1.070725    3.175560    1.656467
H      3.897312   -2.353101    0.487376
H      3.625165   -1.462545   -1.041577
H      4.188544   -0.588594    0.485504
H      2.680992    1.302224    0.978678
H     -2.933712    0.043609    0.120150
H     -1.669463   -0.384788    1.363544
H     -2.226231   -1.709724   -1.259799
H      0.598501    0.793685   -2.310578
