71

C     -2.121213    4.343799   -1.723355
C     -2.549242    3.356675   -2.749343
C     -0.556024   -4.590012   -1.895712
C     -2.443431    1.887812   -2.230820
C     -1.669247   -4.486173   -1.102155
C     -3.350444   -3.490442    0.114747
C     -3.054142   -2.605094    1.352191
C      6.727144   -0.352573    1.171400
C      6.239405    1.899127    0.726783
C     -0.145885   -0.837026    0.934687
C      0.575611    0.071987   -1.281768
C      0.044657   -3.420715   -2.303877
C      1.085063   -0.159389    1.510829
C      1.901687   -0.490468   -0.804888
C      7.921433    0.023250    1.762081
C      7.448536    2.265026    1.325977
C      4.572598    0.208909    0.003748
C     -4.468192   -0.839658    1.851348
C     -4.315294    2.795420   -0.751945
C      5.859629    0.578055    0.640669
C     -0.539707   -0.135137   -0.337414
C     -2.158200   -3.241820   -0.733916
C     -3.458692   -1.227882    1.027652
C     -3.366654    1.816943   -1.100894
C     -5.042901    0.376213    1.673431
C      3.460740    0.185478    0.978549
C     -2.939503   -0.454604   -0.022711
C     -1.845875   -0.669072   -0.934822
C     -3.543829    0.798323   -0.199470
C     -1.559849   -2.120195   -1.141262
C     -4.588585    1.180468    0.663921
Cl    -6.336443    0.893378    2.718521
N     -0.469326   -2.262685   -1.919456
N     -5.030998    2.414665    0.288140
N      2.165371   -0.152093    0.557189
N      8.266280    1.317040    1.832299
O      3.733733    0.479204    2.180856
O      9.463755    1.710299    2.423616
H     -2.729058    5.266083   -1.830978
H     -2.167312    4.007420   -0.674510
H     -1.072866    4.687315   -1.970514
H     -1.907232    3.466929   -3.647445
H     -3.585126    3.478159   -3.100691
H     -0.187182   -5.572689   -2.173606
H     -2.818600    1.377476   -3.154309
H     -1.385157    1.857198   -2.047212
H     -2.180169   -5.391926   -0.753103
H     -4.239477   -3.103728   -0.418076
H     -3.447448   -4.520530    0.450547
H     -2.041023   -2.760271    1.669185
H     -3.784550   -3.015115    2.111612
H      6.481980   -1.412557    1.133697
H      5.624132    2.699077    0.338565
H      0.008596   -1.908517    0.825124
H     -0.962685   -0.644808    1.673270
H      0.804456    1.192331   -1.382215
H      0.427126   -0.221059   -2.331358
H      0.926908   -3.509433   -2.932482
H      0.780248    0.842886    1.832060
H      1.379041   -0.725921    2.434654
H      2.011227   -1.567164   -0.914944
H      2.685556   -0.033734   -1.442376
H      8.585029   -0.711505    2.169540
H      7.765550    3.294853    1.404524
H      4.282625    0.974143   -0.768566
H      4.700036   -0.748110   -0.538706
H     -4.797373   -1.528382    2.652951
H     -4.437484    3.716257   -1.275843
H     -0.838521    0.899238    0.050137
H     -1.989038   -0.384365   -1.980605
H     -5.804178    2.933416    0.767195
