49

C     -1.300144   -2.113602    0.314931
C     -3.753154    3.034198   -3.487068
C      0.804783    1.990444   -4.921287
C      1.871587    0.021238    3.809446
C      2.785196   -0.932466    4.266143
C     -2.659053    0.765555    0.938094
C     -2.110859   -0.371835    1.696257
C     -2.506948    1.678062   -1.376103
C      0.088051    0.841464   -1.633712
C      4.349102   -3.706848    2.477370
C     -1.912875    1.004280   -0.306537
C      1.450937   -0.048631    2.496629
C     -0.612463    0.601909   -0.476562
C      3.253730   -1.917672    3.426710
C     -1.821881    1.917928   -2.519446
C     -0.482397    1.518274   -2.726845
C      1.944027   -1.061780    1.660369
C      2.839194   -1.998673    2.104303
C      0.504530    0.790576    1.735123
C      1.294500   -0.833510    0.306604
C      0.029302   -0.120245    0.647140
N     -0.958687   -1.031398    1.184369
O      0.214239    1.980729    1.995050
O      1.137129   -2.010317   -0.389638
O     -2.391713    2.588116   -3.594268
O      0.154232    1.760841   -3.833255
O      4.150163   -2.958245    3.650652
O      3.479807   -3.071075    1.552273
H     -0.847649   -3.049061    0.691497
H     -1.144520   -1.923602   -0.764786
H     -2.414534   -2.279818    0.403564
H     -4.050648    3.555955   -4.424714
H     -3.841913    3.799036   -2.670498
H     -4.434297    2.180814   -3.353016
H      1.470454    1.143929   -5.332498
H      1.431993    2.937245   -4.987685
H      0.111953    2.137499   -5.828873
H      1.501052    0.800613    4.479401
H      3.126732   -0.892818    5.300120
H     -3.755601    0.534064    0.705654
H     -2.757935    1.706546    1.545203
H     -2.913050   -1.147283    1.847783
H     -1.867128   -0.026124    2.749972
H     -3.539307    1.985727   -1.220357
H      1.117948    0.533534   -1.798019
H      4.113987   -4.778224    2.595148
H      5.383932   -3.538560    2.079216
H      2.016917   -0.127089   -0.198752
H      1.451275   -1.869702   -1.326778
