65

C      3.417102   -2.191270   -1.115562
C      4.898333    1.205253    2.811517
C     -3.307468    4.252996    1.549587
C     -3.173224    4.219544    0.175221
C     -3.172803    3.098312    2.289639
C     -5.621339   -2.230496   -0.101131
C      7.164112   -0.447204   -1.335616
C     -5.819802   -0.970268    0.446672
C      7.589919    0.241304   -0.219081
C     -2.904927    3.048358   -0.483953
C     -2.901837    1.931880    1.592206
C      5.829803   -0.817298   -1.448729
C     -4.420076   -2.556596   -0.725130
C     -4.809466   -0.014672    0.374916
C      6.697415    0.552154    0.764297
C     -1.994044   -0.662875   -2.461461
C     -2.294046    0.698557   -1.911658
C      0.009608    0.591556   -0.171273
C      0.331245   -1.687092   -0.744738
C      3.518486   -0.970420   -0.644852
C     -2.763579    1.873358    0.223449
C      4.910123   -0.500409   -0.443231
C     -3.442300   -1.589736   -0.778734
C     -3.626621   -0.327782   -0.236803
C     -2.101659   -1.768880   -1.400403
C      5.346203    0.174065    0.644825
C     -1.241643   -0.091776    0.158389
C      2.394001   -0.150845   -0.353737
C     -1.421137   -2.398942    0.858529
C     -2.478896    0.586975   -0.400795
C     -1.098407   -1.496126   -0.280394
N      0.996262   -0.476661   -0.445434
O      2.692040    1.055434    0.037250
O     -2.300792   -3.288941    0.828623
O     -0.700939   -2.248603    2.035098
O      4.470235    0.501059    1.663198
H      4.359982   -2.738334   -1.309634
H      2.528448   -2.720358   -1.349578
H      4.004885    1.487374    3.403531
H      5.437366    2.140108    2.545916
H      5.601816    0.600293    3.427962
H     -3.519935    5.175696    2.081230
H     -3.285799    5.153514   -0.384510
H     -3.274074    3.102611    3.366084
H     -6.383858   -2.982918   -0.058673
H      7.831083   -0.719363   -2.144904
H     -6.766409   -0.784009    0.912599
H      8.633646    0.509362   -0.172115
H     -2.800712    3.026762   -1.558792
H     -2.804136    1.029742    2.218283
H      5.471163   -1.359057   -2.317515
H     -4.223020   -3.528634   -1.166173
H     -5.007451    0.947752    0.811264
H      7.015777    1.092110    1.646839
H     -2.756981   -0.920830   -3.229427
H     -1.012950   -0.715467   -2.976064
H     -3.310506    1.048178   -2.273080
H     -1.605304    1.477461   -2.222812
H      0.032320    1.212085   -1.087532
H      0.395043    1.268717    0.634717
H      0.372556   -2.032904   -1.792009
H      0.745512   -2.516625   -0.086728
H     -1.957920   -2.728180   -1.883976
H     -1.387356   -0.058668    1.284005
H     -1.003064   -2.610329    2.930390
