60

C     -5.942448   -0.400346    0.888898
C     -7.485542    1.637281    0.429163
C      7.950298    2.170167    0.971643
C      0.352041   -4.914032    0.494319
C      0.066344   -4.123729    1.594473
C      0.411848   -4.338671   -0.777705
C     -3.703313    1.189305    0.205191
C     -5.095924    1.766036    0.165291
C     -3.147705    1.306161   -1.199406
C     -0.157238   -2.778087    1.432879
C      0.191465   -3.005644   -0.946327
C     -0.697256    1.441427   -1.656165
C      0.671371    0.815909   -1.725361
C     -1.544637   -0.669854   -0.938832
C      5.221593    0.762572   -1.045086
C      5.232463    1.474722    1.224075
C     -6.146521    1.022621    0.485360
C     -1.773998    0.769635   -1.292278
C     -0.093880   -2.239393    0.184919
C      5.874178    1.287659    0.040309
C      0.925695   -0.206735   -0.677641
C     -0.326512   -0.793215   -0.048156
C      3.879229    0.422021   -0.911001
C      3.883078    1.132665    1.357546
C      3.188823    0.596603    0.272720
C      1.790819    0.283291    0.414098
O      3.267139   -0.109749   -2.034770
O      3.321359    1.351951    2.571700
O      1.239152    0.441760    1.558096
O      7.232494    1.623203   -0.124390
H     -5.247677   -0.514779    1.729804
H     -5.586104   -0.973778    0.034697
H     -6.954712   -0.823456    1.155967
H     -7.567995    2.303472    1.334118
H     -8.315776    0.932914    0.411329
H     -7.526737    2.349714   -0.444521
H      8.007327    1.442120    1.817323
H      8.946815    2.480408    0.606078
H      7.378119    3.057852    1.322506
H      0.536000   -5.973298    0.559845
H      0.021194   -4.572691    2.575300
H      0.633296   -4.948050   -1.634939
H     -3.743695    0.131743    0.512754
H     -3.113068    1.740478    0.939532
H     -5.191932    2.781954   -0.127501
H     -3.161190    2.353305   -1.545603
H     -3.783717    0.692350   -1.872856
H     -0.375956   -2.192333    2.302066
H      0.236406   -2.551000   -1.933526
H     -0.818421    2.469227   -1.910602
H      1.376316    1.680835   -1.698128
H      0.767004    0.378198   -2.762481
H     -1.392935   -1.265131   -1.859429
H     -2.387334   -1.104189   -0.382058
H      5.718138    0.607251   -1.994904
H      5.768873    1.896568    2.086729
H      1.472848   -1.067914   -1.168510
H     -0.546146   -0.253468    0.892272
H      3.761738   -0.239882   -2.898991
H      2.504905    1.266049    3.040170
