60

C      7.897512   -1.817425   -0.026022
C      5.951094   -2.673581   -1.456239
C     -7.375836   -0.670126   -2.266608
C     -1.306678    4.539228    0.408540
C     -1.539276    3.959459   -0.823990
C     -0.674649    3.859324    1.424876
C      4.242812   -0.678831   -0.365995
C      5.659725   -0.777700    0.058407
C      3.378999   -0.872967    0.874799
C     -1.117373    2.666801   -1.013161
C     -0.252557    2.572774    1.242534
C      1.197279   -1.859699    0.768762
C     -0.287985   -1.731312    0.383848
C      1.483258    0.481205   -0.081917
C     -5.677894    0.403500    0.798331
C     -4.783337   -0.593993   -1.184977
C      6.477055   -1.703741   -0.439042
C      1.920937   -0.783856    0.511273
C     -0.486716    1.990968    0.003652
C     -5.855332   -0.117769   -0.463585
C     -0.653160   -0.359319    0.803749
C     -0.036881    0.609099   -0.201820
C     -4.401400    0.425795    1.295527
C     -3.491593   -0.566962   -0.671087
C     -3.285705   -0.055542    0.577266
C     -1.980763   -0.003384    1.182162
O     -4.258412    0.959116    2.572965
O     -2.497395   -1.069036   -1.475452
O     -2.026242    0.509443    2.402251
O     -7.147699   -0.142748   -0.972899
H      8.356922   -0.824232    0.177839
H      8.472056   -2.335275   -0.827222
H      7.947303   -2.430086    0.900475
H      5.116425   -3.223977   -0.986337
H      5.537945   -2.099400   -2.320895
H      6.737882   -3.358867   -1.786877
H     -6.910139   -1.661117   -2.369425
H     -6.887010   -0.012957   -3.029177
H     -8.470087   -0.719143   -2.409602
H     -1.636829    5.567682    0.574077
H     -2.031381    4.463230   -1.641835
H     -0.501233    4.330910    2.384438
H      4.020568   -1.421441   -1.135842
H      4.086097    0.332219   -0.794905
H      6.075352   -0.095462    0.790407
H      3.593908   -0.004046    1.553698
H      3.637095   -1.830245    1.348412
H     -1.294009    2.207465   -1.968839
H      0.241495    2.021231    2.016259
H      1.567828   -2.769657    1.207997
H     -0.872369   -2.555242    0.778138
H     -0.177335   -1.741427   -0.746213
H      1.798414    1.308183    0.584379
H      1.918861    0.660183   -1.082943
H     -6.527998    0.771577    1.348686
H     -4.955767   -1.000952   -2.182032
H      0.053902   -0.189968    1.745954
H     -0.263704    0.231341   -1.210747
H     -4.998303    1.310879    3.124214
H     -2.707681   -1.430125   -2.379354
