57

C      0.750900   -2.814096    1.591683
C     -3.720528    3.717783    0.283920
C      6.362488    0.679008   -1.195463
C     -3.974778    3.269945   -0.994454
C     -2.923812    2.943904    1.093679
C      5.571142   -0.551563   -0.823976
C      6.230170    1.774210   -0.166701
C     -3.433540    2.061769   -1.446102
C     -2.396727    1.752768    0.632427
C     -4.768105   -1.454322   -1.059972
C     -3.906005   -2.950219    0.549479
C     -5.989690   -2.132818   -1.025107
C     -5.115564   -3.634735    0.594572
C      4.133466   -0.179943   -0.514120
C      4.752615    2.075400    0.121400
C     -0.568495    0.013252   -1.127453
C     -2.637245    1.289903   -0.634292
C     -3.719517   -1.863575   -0.269330
C     -6.169096   -3.224636   -0.198918
C     -2.079586    0.029973   -1.124207
C     -2.428367   -1.137845   -0.313980
C      0.776327   -0.470192    1.055774
Cl    -7.718507   -4.058330   -0.177180
N      1.259997   -1.480237    1.701014
N     -1.412651   -1.471437    0.401700
N      1.401517    0.808965    1.275691
N      4.140062    0.849971    0.455619
N     -0.322899   -0.629783    0.172718
O      3.292055    1.958933    2.632203
O      3.365406   -0.454598    2.565127
S      3.062876    0.778580    1.723826
H      0.459272   -3.091547    0.551867
H     -0.111873   -2.998778    2.292016
H      1.548310   -3.524148    1.894447
H     -4.149554    4.668354    0.630919
H      7.432461    0.380597   -1.206917
H      6.005509    1.036406   -2.172088
H     -4.602372    3.875769   -1.638437
H     -2.723442    3.295616    2.100119
H      5.975854   -1.014214    0.112301
H      5.661885   -1.263461   -1.656854
H      6.778148    2.651417   -0.506928
H      6.630353    1.368316    0.783484
H     -3.675595    1.775259   -2.456428
H     -1.780847    1.193946    1.318025
H     -4.613260   -0.596585   -1.702599
H     -3.081889   -3.267039    1.166779
H     -6.809640   -1.807007   -1.648136
H     -5.262012   -4.502480    1.249425
H      3.592337   -1.054102   -0.120166
H      3.661673    0.121529   -1.480043
H      4.365013    2.518479   -0.820227
H      4.717248    2.755675    0.972762
H     -0.136624   -0.572814   -1.947840
H     -0.141953    1.051932   -1.082832
H     -2.386631   -0.160727   -2.198133
H      0.833719    1.663572    1.155516
