48

C     -3.362226   -1.199908    2.433233
C      0.478895    3.659602   -3.126878
C      5.440389   -1.456122    2.287505
C      3.783574    1.546431   -0.830922
C     -2.972958    1.424946   -2.091820
C      1.446139   -2.268779    1.316994
C     -1.847511    2.153063   -2.429560
C      2.775922   -2.009493    1.644986
C     -4.190297   -0.261114   -0.760286
C     -3.951447   -1.451482    0.098316
C     -0.710662   -1.806051    0.449259
C     -2.947690    0.484025   -1.064941
C      0.674533   -1.311437    0.703864
C     -1.730305   -0.701175    0.715548
C     -0.657094    1.970920   -1.757776
C      3.324707   -0.767933    1.347312
C     -1.772070    0.293711   -0.389718
C      1.258732   -0.093526    0.426509
C     -0.632162    1.039552   -0.741430
C      2.561162    0.209185    0.729206
N     -2.948816   -1.291193    1.076228
O      0.474739    2.709137   -2.103725
O      4.640291   -0.479508    1.659397
O      3.149713    1.436004    0.449970
O      0.654680    0.997696   -0.184263
H     -2.884918   -0.362346    3.000073
H     -4.464787   -1.179736    2.558672
H     -3.021957   -2.145682    2.949230
H      1.315636    4.406820   -2.989400
H     -0.469210    4.267341   -3.056204
H      0.586635    3.223448   -4.140796
H      6.495883   -1.112323    2.211609
H      5.165996   -1.495349    3.362412
H      5.338810   -2.453498    1.785260
H      3.029191    1.500155   -1.644058
H      4.279241    2.540866   -0.934252
H      4.487557    0.702201   -1.007152
H     -3.893764    1.585116   -2.632376
H      0.985177   -3.225212    1.534323
H     -1.943148    2.875686   -3.249423
H      3.357663   -2.782821    2.127317
H     -4.602333   -0.583528   -1.762008
H     -4.964154    0.418710   -0.349426
H     -3.736613   -2.368022   -0.515179
H     -4.920778   -1.691070    0.623892
H     -0.845235   -2.147798   -0.590046
H     -0.911969   -2.594660    1.203335
H     -1.323159   -0.204850    1.657191
