62

C      8.488703   -1.295827    1.290824
C     -1.217146    1.805299    1.911865
C     -2.699713   -0.142107    2.174101
C      7.005590   -1.041458    0.882495
C      6.886121    0.272987    0.213331
C      5.569074    0.760546   -0.192061
C      4.716795    0.053966   -1.144694
C      4.207197   -1.297520   -0.807080
C      3.433270   -1.250551    0.476179
C      2.283989   -0.319887    0.380918
C      1.298969   -0.697717   -0.703756
C     -7.100013    1.529156    0.292807
C     -8.071920    0.149009   -1.465062
C     -5.975474    1.946534    0.978488
C     -7.913709   -0.764009   -2.479238
C     -6.975848    0.612755   -0.730373
C     -4.694665    1.475750    0.679211
C      0.161565    0.286087   -0.721571
C     -6.634823   -1.193908   -2.732245
C     -4.600373    0.562900   -0.345051
C     -3.289575    0.007373   -0.731643
C     -5.728730    0.124346   -1.056127
C     -2.164258    0.751738   -0.082364
C     -2.425158    1.096166    1.348696
O      0.260657    1.410940   -1.250203
O     -6.484942   -2.043032   -3.675329
O     -3.184767   -1.370346   -0.550041
O     -5.612133   -0.752477   -2.036902
O     -1.014238   -0.086327   -0.131873
O     -3.580631    1.909343    1.380752
H      9.157006   -0.985551    0.474696
H      8.667661   -0.771446    2.246685
H      8.546162   -2.385670    1.500470
H     -0.758080    2.478464    1.162080
H     -0.466389    1.026231    2.150728
H     -1.451715    2.327162    2.863380
H     -3.139302    0.132427    3.171947
H     -3.448749   -0.807177    1.697831
H     -1.788834   -0.721835    2.386206
H      6.855325   -1.856825    0.113305
H      6.408786   -1.187817    1.786116
H      7.399364    1.021371    0.894390
H      7.551009    0.323139   -0.716636
H      5.742518    1.807833   -0.643282
H      4.940838    1.068503    0.733846
H      5.307812    0.006075   -2.131684
H      3.865472    0.743999   -1.439263
H      4.909151   -2.123191   -0.797643
H      3.485206   -1.562949   -1.671085
H      4.071177   -0.904327    1.329565
H      3.035490   -2.245290    0.773211
H      1.732917   -0.225430    1.357091
H      2.639453    0.722360    0.134693
H      1.759078   -0.599700   -1.708180
H      0.939720   -1.721736   -0.540644
H     -8.082993    1.895093    0.527581
H     -9.044647    0.532254   -1.208402
H     -6.037604    2.663192    1.784616
H     -8.722391   -1.142435   -3.062817
H     -3.186192    0.177862   -1.839660
H     -1.891004    1.701952   -0.602599
H     -3.940058   -1.886267   -0.900897
