62

C      9.121839    2.083803    0.775326
C     -2.824658   -2.803910    0.698470
C     -2.069079   -2.778688   -1.605872
C      7.679452    1.831985    0.468121
C      7.319199    0.346759    0.567590
C      5.830294    0.268941    0.227909
C      5.324421   -1.130452    0.282589
C      3.868047   -1.179019   -0.074051
C      3.064628   -0.356334    0.887514
C      1.600810   -0.446119    0.530697
C      1.312625    0.059450   -0.852789
C     -7.371581   -0.033941   -0.950407
C     -7.770089    2.136252    0.023986
C     -6.482468   -1.050004   -1.211736
C     -7.299090    3.233534    0.703199
C     -6.924122    1.097674   -0.260561
C     -5.165810   -0.962304   -0.802668
C     -0.141617   -0.038562   -1.153859
C     -5.956728    3.226738    1.072161
C     -4.694301    0.140502   -0.120544
C     -3.286586    0.264814    0.332318
C     -5.605047    1.165131    0.139063
C     -2.451530   -0.634454   -0.522050
C     -2.945635   -2.046145   -0.584319
O     -0.556640    0.343658   -2.274146
O     -5.556202    4.246507    1.693070
O     -3.149456    0.039718    1.690341
O     -5.158064    2.223971    0.792394
O     -1.068475   -0.534322   -0.253135
O     -4.269694   -2.012960   -1.079385
H      9.254942    2.222777    1.862472
H      9.403642    3.040960    0.257122
H      9.800083    1.316631    0.385957
H     -3.459203   -3.731614    0.584503
H     -3.182113   -2.294966    1.583792
H     -1.798113   -3.178452    0.857956
H     -2.223615   -3.882076   -1.545482
H     -2.237502   -2.434807   -2.624412
H     -0.992156   -2.623018   -1.315336
H      7.028978    2.359316    1.172042
H      7.438829    2.156360   -0.563052
H      7.537875   -0.046983    1.566346
H      7.896931   -0.219357   -0.192432
H      5.322065    0.916894    0.984969
H      5.704616    0.673012   -0.779335
H      5.472143   -1.611734    1.275750
H      5.872215   -1.745226   -0.467098
H      3.477094   -2.212971   -0.154514
H      3.783640   -0.738475   -1.110378
H      3.176907   -0.682567    1.925308
H      3.366584    0.720077    0.822839
H      1.029137    0.220493    1.236561
H      1.266251   -1.488251    0.643422
H      1.623050    1.100141   -1.012423
H      1.848836   -0.570454   -1.593116
H     -8.411546   -0.048692   -1.246258
H     -8.799219    2.034613   -0.312307
H     -6.844789   -1.913232   -1.743792
H     -7.955295    4.043165    0.925926
H     -2.908921    1.314573    0.154371
H     -2.582803   -0.236602   -1.574850
H     -3.282987    0.838241    2.241951
