47

C      6.098329    0.088904   -0.279619
C      6.262223   -1.222141    0.102608
C     -2.091489   -0.418215    3.138290
C     -5.158885   -0.749383   -0.622250
C     -3.351489   -0.726688    2.695809
C     -5.110196   -0.808053    0.868553
C      4.795461    0.554944   -0.453320
C     -1.164877    0.176420    2.255512
C      5.202726   -2.081053    0.319133
C     -4.253249    0.171938   -1.326215
C      1.760517   -1.224383    0.077486
C     -1.787900    0.852142   -1.191168
C     -3.777187   -0.479492    1.379481
C      3.688205   -0.285731   -0.245798
C     -1.568397    0.424821    0.962202
C      2.329397   -0.051304   -0.286601
C     -0.847708    0.925972   -0.184000
C      3.934032   -1.580013    0.136430
C      1.685402    1.197708   -0.724253
C      0.451650    1.487286    0.028558
C     -2.815884    0.103844    0.573538
C      1.229033    1.310250   -2.089156
C      0.320979    2.868549   -0.749218
N      2.709965   -2.130496    0.323817
N      0.389445    2.350253   -2.093962
N     -2.962080    0.361917   -0.711760
O      1.488918    0.596751   -3.231227
O      0.200106    3.936674   -0.243840
H      6.912736    0.799349   -0.442101
H      7.263319   -1.555206    0.219746
H     -1.754309   -0.637539    4.176918
H     -5.141642   -1.800175   -1.062462
H     -6.213270   -0.434938   -0.879169
H     -4.089599   -1.179462    3.348206
H     -5.409489   -1.863128    1.153888
H     -5.863632   -0.084878    1.297904
H      4.589677    1.573065   -0.731260
H     -0.168190    0.428646    2.583692
H      5.434912   -3.083245    0.626504
H     -4.165644   -0.138839   -2.357873
H     -4.804333    1.186752   -1.349100
H      0.673573   -1.358379    0.146923
H     -1.601440    1.149401   -2.206703
H      2.400977    2.044236   -0.545913
H      0.657043    1.804487    1.095165
H      2.603896   -3.137025    0.616716
H      1.018369    0.635459   -4.120113
