66

C      6.360328    1.818052    2.963937
C      3.205711    0.014746   -3.189630
C     -6.324322    0.053291   -0.324478
C     -4.857809    2.002775   -0.596548
C      1.932282   -2.390870   -2.531467
C      0.468163   -2.548885   -2.142528
C     -2.149939   -1.370367   -1.296283
C     -3.245617   -0.296994   -1.346740
C      5.624710    1.463031    0.565946
C      0.492563    0.870580    0.368888
C     -3.957260   -0.017768    3.242680
C     -1.863546    1.205911    0.595366
C      5.932768    1.023679    1.761781
C      3.586773   -0.594051   -1.857642
C     -0.767583    0.412712    0.022735
C      2.573066   -1.604424   -1.423868
C     -0.913689   -0.708875   -0.800774
C      0.215517   -1.373233   -1.278385
C      1.613741    0.219587   -0.099003
C      5.266506    0.324350   -0.287166
C     -3.850631   -0.219512    0.007175
C     -3.887641    0.936006    2.043614
C     -3.211615   -1.213109    2.784042
C      1.414182   -0.868981   -0.898466
C      3.868045    0.480704   -0.881046
C      5.796410   -0.419329    1.766215
C     -5.022903    0.696120    0.126766
C     -2.927661    0.276031    1.080786
O     -3.379027   -2.360189    3.275165
O      6.021612   -1.157348    2.776164
O      2.916478    0.584980    0.179198
O      5.391056   -0.797211    0.504281
O     -5.128830    0.952215    1.471404
O     -2.349927   -0.808737    1.764258
H      5.931352    2.831185    2.901991
H      7.465567    1.815945    3.021860
H      5.921866    1.321463    3.849396
H      3.739441    0.984075   -3.258216
H      3.541738   -0.604881   -4.046614
H      2.123913    0.252468   -3.240739
H     -6.287151   -1.043908   -0.238097
H     -6.595963    0.414094   -1.337126
H     -7.155249    0.394344    0.346441
H     -4.276990    1.945985   -1.515188
H     -4.469924    2.786866    0.097936
H     -5.883686    2.369183   -0.889423
H      2.064656   -1.971934   -3.526349
H      2.366746   -3.412604   -2.524461
H     -0.114433   -2.427878   -3.076988
H      0.284746   -3.507661   -1.627629
H     -2.472076   -2.153062   -0.579070
H     -2.040036   -1.806560   -2.288882
H     -2.719527    0.636055   -1.649573
H     -4.034303   -0.551159   -2.071381
H      5.629404    2.494968    0.245849
H      0.616643    1.723364    0.995180
H     -3.530993    0.436168    4.151397
H     -5.003248   -0.286776    3.483009
H     -1.451232    1.751131    1.484475
H     -2.225499    1.962599   -0.112724
H      4.543301   -1.157176   -2.050739
H      2.976092   -2.242299   -0.612487
H      6.021101    0.333071   -1.132720
H     -4.186356   -1.246617    0.291224
H     -3.508277    1.916394    2.362578
H      3.886463    1.458273   -1.405441
