66

C      6.046223    3.561654   -0.732402
C      4.202238   -2.734427    1.275506
C     -5.621490    0.530579   -1.489217
C     -5.967714   -0.681906    0.637321
C      1.752233   -3.588627    0.213643
C      0.231054   -3.428483   -0.035192
C     -2.207783   -1.865049    0.561183
C     -3.287478   -0.936723    1.068806
C      5.483700    1.374312    0.318516
C      0.514185    0.790666    0.297637
C     -3.881832    3.501897    0.094002
C     -1.727658    1.395210    0.782589
C      5.748566    2.095176   -0.751950
C      3.690982   -1.938402    0.092425
C     -0.780695    0.300152    0.496896
C      2.351813   -2.361352   -0.370057
C     -0.960174   -1.064423    0.400287
C      0.088767   -1.939439    0.116495
C      1.565593   -0.019129    0.019750
C      5.244433   -0.018902   -0.096305
C     -3.650489   -0.007792   -0.046805
C     -4.035657    2.163284    0.733940
C     -3.013608    3.293152   -1.077999
C      1.305095   -1.359775   -0.060482
C      3.883208   -0.489774    0.372076
C      5.699401    1.229111   -1.918413
C     -5.123553    0.365796   -0.047973
C     -2.999873    1.327039    0.012610
O     -2.477332    4.224929   -1.757279
O      5.906091    1.590264   -3.129072
O      2.902469    0.379467   -0.192869
O      5.391515   -0.033553   -1.465993
O     -5.251404    1.572273    0.578638
O     -2.918004    1.922079   -1.263760
H      6.006762    4.002751   -1.740015
H      7.051852    3.665636   -0.268233
H      5.300989    4.091610   -0.101173
H      4.003108   -3.822274    1.123432
H      5.303666   -2.639453    1.372781
H      3.765424   -2.372535    2.231169
H     -5.868269    1.581893   -1.716397
H     -6.573331   -0.051522   -1.627292
H     -4.846614    0.211791   -2.219149
H     -5.757930   -1.707142    0.297259
H     -5.945722   -0.558417    1.738062
H     -7.035808   -0.481134    0.343386
H      2.051834   -4.480925   -0.356316
H      1.954618   -3.763578    1.270479
H     -0.334858   -3.972344    0.724730
H      0.038022   -3.757039   -1.069605
H     -2.056638   -2.746167    1.210855
H     -2.524021   -2.196517   -0.452213
H     -2.820551   -0.357768    1.912100
H     -4.136985   -1.474107    1.512992
H      5.454273    1.778382    1.338876
H      0.706754    1.858581    0.363268
H     -4.819878    4.023318   -0.122040
H     -3.294038    4.147354    0.809291
H     -1.232715    2.364860    0.513700
H     -1.953181    1.487690    1.870783
H      4.412640   -2.190072   -0.745418
H      2.313437   -2.485976   -1.493041
H      6.050757   -0.623110    0.422438
H     -3.464342   -0.515468   -1.038583
H     -3.759663    2.190654    1.827782
H      3.907588   -0.358255    1.494766
