46

C     -1.895356   -3.254706   -0.530604
C      6.371627   -0.237144   -1.015253
C     -0.785895   -2.712741    0.376910
C      3.400705   -0.112854    1.093706
C      1.927556   -0.403914    0.895305
C      4.231309   -0.332019   -0.136604
C     -3.088550    1.090360   -0.012357
C      0.296119   -0.163754   -0.890688
C     -1.747597    0.889610    0.029362
C     -1.022984   -0.409691   -0.288677
C     -3.558343    2.315221    0.295345
C     -0.952888    1.929537    0.378009
N     -6.279956    1.668916   -0.091620
N     -1.095164   -1.355565    0.783139
N      1.319248    0.404486   -0.099463
O     -5.404211    4.070942   -0.594707
O     -5.505002    3.447676    1.727778
O      1.298661    3.053576   -0.324708
O      1.150239    2.125293    1.937289
O      5.580162   -0.049288    0.095879
S     -2.137872    3.241322    0.657806
S     -5.211891    2.937864    0.346175
S      0.771585    1.919068    0.502390
Cl     0.686005    0.000000    0.000000
H     -1.575265   -3.312581   -1.588987
H     -2.818841   -2.635006   -0.400217
H     -2.164259   -4.277214   -0.205120
H      6.345550   -1.277312   -1.398080
H      7.423394    0.001940   -0.739791
H      6.089432    0.507436   -1.777081
H     -0.752619   -3.351988    1.274790
H      0.131599   -2.790289   -0.239186
H      3.569896    0.959402    1.402600
H      3.813083   -0.702477    1.936291
H      1.441141   -0.192314    1.872386
H      1.861076   -1.490612    0.640894
H      3.812364    0.271244   -0.984605
H      4.194647   -1.402898   -0.477736
H     -3.831492    0.296985   -0.287363
H      0.688658   -1.145120   -1.290548
H      0.146210    0.503987   -1.772812
H     -1.620067   -0.923020   -1.130186
H     -6.540515    1.095027    0.719920
H     -5.911992    1.161158   -0.900657
H     -1.963499   -1.358542    1.324581
H     -0.686005    0.000000    0.000000
