27

C      3.688804   -0.844687   -0.676720
C     -0.937664   -0.140112    2.334281
C      0.290368    0.881386   -2.344353
C     -0.931995    0.867392   -1.710000
C     -0.069230   -0.975399    1.438720
C     -1.935839    0.722539    1.654626
C      1.398640    0.301454   -1.767383
C     -0.995102    0.253455   -0.485094
C      0.094715   -0.333067    0.113684
C     -2.264096    0.193428    0.266679
C      1.321263   -0.310657   -0.539025
O     -3.200061    0.977671   -0.377409
O      2.454142   -0.881390    0.007841
H      3.739231   -1.619557   -1.475224
H      4.474669   -1.041318    0.110364
H      3.935180    0.174583   -1.060335
H     -0.263565    0.519593    2.930652
H     -1.443822   -0.836667    3.063250
H      0.365874    1.353782   -3.300236
H     -1.780629    1.333069   -2.193797
H      0.904429   -1.135581    1.943428
H     -0.547059   -1.987419    1.345401
H     -2.888161    0.819789    2.249502
H     -1.523414    1.758824    1.483658
H      2.344879    0.347238   -2.326324
H     -2.611273   -0.849842    0.417916
H     -3.620284    0.451493   -1.104100
