46

C      1.625230    2.207512   -2.717463
C     -5.310975    1.592121    1.627544
C      1.519744    0.697320   -2.980483
C     -3.879092   -0.163215   -0.173578
C     -2.602309   -0.695581   -0.768881
C     -3.936966    1.348725   -0.230318
C      2.874620   -0.504754    0.860751
C     -0.323268   -0.401405   -1.032062
C      1.562197   -0.506064    0.553151
C      0.961604    0.203867   -0.668167
C      3.300977   -1.144443    1.938480
C      0.699659   -1.183117    1.383580
N      6.021544   -0.548342    1.675389
N      1.875047    0.043949   -1.774590
N     -1.421022   -0.212313   -0.082390
O      4.881606   -0.769688    4.056486
O      5.286782   -2.807419    2.720848
O     -1.781054   -1.057653    2.445553
O     -1.321171   -2.707485    0.640431
O     -5.093681    1.881878    0.302825
S      1.840304   -1.855823    2.680093
S      4.883561   -1.375520    2.671234
S     -1.012994   -1.329279    1.205249
Cl     0.690489    0.000000    0.000000
H      1.721608    2.670706   -3.719150
H      0.735347    2.563882   -2.168121
H      2.568379    2.389347   -2.181649
H     -6.281866    2.103812    1.908003
H     -4.477076    2.031438    2.232332
H     -5.421774    0.535900    1.880880
H      2.375945    0.512089   -3.706493
H      0.582980    0.418522   -3.456009
H     -4.103337   -0.577268    0.816373
H     -4.704403   -0.527505   -0.850036
H     -2.622125   -1.805064   -0.619602
H     -2.585830   -0.442058   -1.836035
H     -3.944142    1.625040   -1.323335
H     -3.014406    1.811157    0.193989
H      3.662430    0.031343    0.226800
H     -0.246828   -1.495351   -1.207805
H     -0.684976    0.095094   -1.961963
H      0.856407    1.269701   -0.471548
H      5.766219    0.471929    1.696238
H      6.974379   -0.614161    2.099234
H      2.192727   -0.947505   -1.885782
H     -0.690489    0.000000    0.000000
