52

C      4.439881    0.135071    1.493700
C      2.468918    1.668861    1.828698
C     -0.994722    2.920351   -1.925556
C     -3.190985   -0.952925    2.141718
C      1.191894   -1.169748   -2.226838
C     -3.850892    1.007116    0.211281
C     -2.914891    1.766588   -0.709340
C     -3.766832   -0.486096   -0.106901
C     -0.420382    1.775450    0.017574
C      0.612451    0.975070   -0.676935
C     -1.543710   -1.707753    0.337305
C      2.907498   -1.652251   -0.113066
C     -0.720594   -2.069185   -0.867670
C      1.678076   -2.542284   -0.294695
C      3.010745    0.432569    1.214504
C     -1.676787    2.082960   -0.800181
C     -2.645459   -1.152597    0.698964
C      2.311436   -0.397406    0.471248
C      0.896333   -0.355761    0.043850
C      0.690741   -1.520064   -0.817532
H      5.055444    1.060684    1.492019
H      4.840481   -0.521601    0.696938
H      4.541874   -0.424592    2.449946
H      1.437949    1.488948    2.199043
H      2.443110    2.538516    1.154508
H      3.042802    1.932115    2.767939
H     -1.482956    3.724834   -2.376019
H     -0.071862    3.431576   -1.454868
H     -0.535732    2.239042   -2.667060
H     -2.777871   -0.040399    2.602824
H     -3.259194   -1.782960    2.793877
H     -4.304043   -0.666092    2.043440
H      1.684364   -2.090907   -2.657465
H      1.985934   -0.408818   -2.192645
H      0.362731   -0.954567   -2.917458
H     -3.745230    1.120222    1.269387
H     -4.936822    1.308282    0.029059
H     -3.738045    2.027889   -1.514187
H     -4.767388   -0.957485    0.202348
H     -3.812485   -0.574817   -1.157652
H     -0.602143    1.322169    0.971330
H      0.098340    2.764348    0.291734
H      0.337371    0.681489   -1.714626
H      1.585529    1.479418   -0.772512
H     -0.739966   -2.142428    1.102818
H      3.601714   -2.142060    0.573191
H      3.363942   -1.418834   -1.082454
H     -1.072882   -1.881408   -1.858474
H     -0.577284   -3.207859   -0.853263
H      1.336498   -2.939094    0.673761
H      1.895548   -3.343754   -1.023932
H      0.327555   -0.379821    1.008323
