48

C     -7.510431   -2.343362   -1.585343
C      7.296825   -3.275395    0.339622
C     -3.177373   -0.833334   -0.055735
C     -4.898603    0.705717   -0.489720
C      3.036110   -1.089713   -0.149444
C      4.911106    0.130650    0.559612
C     -4.033380   -1.865381   -0.417472
C     -5.759407   -0.310304   -0.851724
C      3.793606   -2.241383   -0.235185
C      5.690217   -1.020430    0.478999
C     -3.600505    0.478562   -0.086645
C      3.568786    0.116004    0.246393
C     -5.330926   -1.624302   -0.819248
C      5.154032   -2.225765    0.082435
C     -0.521907    2.416431    1.070226
C      0.641701    2.548642    0.121008
C     -0.089058    2.241900    2.457955
C      0.147591    2.866107   -1.241432
C     -2.701594    1.575346    0.294360
C      2.767004    1.330906    0.336153
O     -0.504543    1.266417    3.130206
O      0.785162    3.160347    3.032102
O     -0.588537    3.891242   -1.359876
O      0.439242    2.123088   -2.360453
O     -3.121896    2.760360    0.254504
O      3.324867    2.399051    0.706536
O     -6.190299   -2.655970   -1.182049
O      5.929922   -3.363814    0.004018
O     -1.403362    1.372711    0.699100
O      1.428584    1.393501    0.041371
H     -8.089731   -1.836255   -0.790055
H     -8.053834   -3.268679   -1.864834
H     -7.442038   -1.631758   -2.446303
H      7.868683   -2.654590   -0.382169
H      7.678372   -4.337165    0.349138
H      7.460006   -2.874411    1.342972
H     -2.152837   -1.032952    0.260785
H     -5.259469    1.723189   -0.524295
H      1.973247   -1.098686   -0.396864
H      5.389449    1.046734    0.877347
H     -3.704151   -2.899936   -0.394496
H     -6.780703   -0.143071   -1.169741
H      3.379617   -3.180878   -0.543389
H      6.758937   -1.004997    0.729279
H     -1.116883    3.370680    0.955426
H      1.221631    3.441986    0.456903
H      1.412756    2.888563    3.772479
H     -0.025991    2.280581   -3.252452
