44

C     -1.218598    0.026608    2.295120
C      4.512732    1.713612   -1.109580
C      3.582296    1.869538    1.073388
C     -2.645044   -4.223138   -0.687395
C     -1.678636   -4.930682   -1.351693
C     -2.132552    3.479270    0.268783
C     -2.400272   -2.986140   -0.183576
C     -1.826873    2.249547    0.864398
C     -0.438395   -4.335819   -1.491072
C      1.230189    0.534508    0.272072
C     -2.670457    3.488104   -0.990106
C      2.511895    0.532054   -0.589844
C     -1.748217   -0.198556    0.902490
C     -2.042441    1.049844    0.241563
C     -1.154920   -2.322381   -0.292226
C     -0.221759   -3.070071   -0.964564
C      0.479261   -0.648896   -0.050749
C     -0.773912   -1.101283    0.158891
C     -2.593150    1.140412   -1.038393
F     -2.818648   -0.027027   -1.676077
N     -2.887121    2.313929   -1.611911
N      3.307220    1.686319   -0.327067
S      1.255686   -2.063922   -0.987658
H     -0.391751    0.728136    2.362526
H     -0.973812   -0.977461    2.729231
H     -2.034126    0.416994    2.975730
H      5.392698    2.032351   -0.513115
H      4.763110    0.702179   -1.533662
H      4.438846    2.433978   -1.970184
H      2.653860    2.250545    1.549053
H      3.908140    0.977077    1.605920
H      4.350727    2.661239    1.164812
H     -3.662165   -4.664471   -0.551436
H     -1.908176   -5.903487   -1.735907
H     -1.934234    4.385406    0.820536
H     -3.242013   -2.497268    0.335304
H     -1.400779    2.321060    1.881874
H      0.347608   -4.860839   -2.007701
H      1.636288    0.467063    1.302599
H      0.783891    1.505258    0.124484
H     -2.926645    4.440190   -1.498521
H      3.088561   -0.401064   -0.396347
H      2.220949    0.526962   -1.650363
H     -2.739260   -0.719676    1.051334
