69

C      4.965760    1.577568    0.073745
C      5.872509    2.544125    0.449179
C      3.421230    3.250329   -0.529413
C     -3.561129    1.306004    0.277944
C     -4.675832    0.958853   -1.760634
C      2.172177   -4.069903   -1.565738
C      3.759056   -2.435976   -2.215483
C     -3.617687   -1.783403    1.161872
C     -0.398108   -2.288245    2.940576
C      3.708114    1.903399   -0.428451
C     -3.759104    0.501426   -0.805238
C      3.336211   -3.742252   -2.229455
C     -2.180068   -1.780702    1.467386
C      5.573820    3.887776    0.343389
C     -1.752194   -2.284041    2.678614
C      4.336227    4.231565   -0.150972
C      1.419763   -3.128538   -0.888704
C      0.508127   -1.806542    2.025579
C     -4.236253    2.513983    0.422896
C     -5.347327    2.150539   -1.626181
C     -3.822163   -1.886751   -0.323375
C      3.018257   -1.460336   -1.539045
C      1.857919   -1.806784   -0.881426
C      0.111685   -1.293029    0.799181
C      1.067083   -0.784688   -0.183953
C     -5.125319    2.936161   -0.522124
C      2.026573    0.240677    0.388658
C     -3.092085   -0.795963   -1.021738
C      2.735046    0.855439   -0.820947
C     -1.268357   -1.297295    0.554400
O      4.048517   -4.752348   -2.895715
O      6.487977    4.872593    0.721654
O     -2.605912   -2.784306    3.645585
O      4.041031    5.581774   -0.253996
O      0.266854   -3.405176   -0.217753
O      1.845299   -1.833558    2.333896
O     -3.996085    3.304976    1.558827
O     -6.262236    2.600249   -2.586754
O     -5.178604   -1.787236   -0.647420
O     -5.800482    4.144430   -0.375173
O      1.371937    1.236885    1.062910
O      3.450736   -0.137168   -1.527727
O     -1.713811   -0.786369   -0.670607
H      5.177472    0.509033    0.146154
H      6.850019    2.266280    0.838149
H      2.464685    3.552462   -0.911330
H     -2.850679    0.983120    1.032866
H     -4.875120    0.352773   -2.649501
H      1.815609   -5.096015   -1.560941
H      4.659973   -2.140393   -2.718240
H     -4.174078   -0.906713    1.533669
H     -4.140754   -2.670025    1.601508
H     -0.061841   -2.683918    3.904755
H     -3.505057   -2.888514   -0.716391
H      0.476746   -0.226865   -0.967698
H      2.835933   -0.249023    0.971517
H     -3.125846   -0.975763   -2.144040
H      1.993723    1.329610   -1.482119
H      4.771007   -5.253661   -2.353525
H      6.239048    5.850013    0.626989
H     -3.603940   -2.809860    3.526406
H      3.171737    5.955598   -0.598216
H     -0.195417   -4.294095   -0.188041
H      2.142133   -2.201855    3.223876
H     -3.340345    2.980473    2.251918
H     -6.457582    2.044808   -3.419375
H     -5.564982   -2.625262   -0.960240
H     -5.616669    4.698072    0.450042
H      1.905071    2.031581    1.246826
