57

C     -2.032251    1.065462   -1.068580
C      2.204821    1.089486   -0.952640
C     -2.410980   -1.742147   -0.578954
C     -0.945696   -1.944229   -0.471235
C      2.017996   -1.764168   -1.126494
C      3.444491   -1.673740   -0.627291
C     -4.165776    1.859711    0.759263
C     -2.730842    1.651678    1.143289
C     -4.313095   -0.636872    0.626880
C      1.647086    0.860319    1.404123
C      5.989540   -0.296270    0.174559
C     -2.854819   -0.740474    0.484783
C     -4.937088    0.671482    0.355034
C     -0.125511   -0.667680   -0.381524
C      1.251392   -1.064035   -0.028258
C      3.465423   -0.563529    0.434147
C      0.227372    1.226369    1.171067
C      4.625332    0.292531    0.176838
C     -0.687946    0.208634    0.743735
C     -2.077725    0.557650    0.357156
C      2.134321    0.141005    0.194384
O      6.964993    0.669433   -0.086908
O     -5.334469    0.702477   -1.005454
O     -0.074324    2.364560    1.356031
O      4.491534    1.473360   -0.033450
H     -2.066642    0.306840   -1.837523
H     -1.101922    1.660491   -1.187045
H     -2.845209    1.818265   -1.263703
H      2.351744    2.126969   -0.518933
H      3.002287    0.834256   -1.685421
H      1.209969    1.154376   -1.430988
H     -2.819017   -1.554658   -1.566061
H     -2.888829   -2.713999   -0.245280
H     -0.710597   -2.535438    0.438475
H     -0.576119   -2.485245   -1.366146
H      1.859842   -1.272128   -2.091978
H      1.724931   -2.846943   -1.204845
H      4.099025   -1.443177   -1.468498
H      3.716178   -2.651097   -0.157653
H     -4.289185    2.622164   -0.068292
H     -4.637042    2.387745    1.643821
H     -2.241135    2.619076    0.807982
H     -2.636107    1.505567    2.231701
H     -4.773212   -1.390985   -0.081338
H     -4.694188   -1.000941    1.630451
H      2.264949    1.728360    1.690614
H      1.623590    0.100588    2.241571
H      6.204969   -0.775093    1.172519
H      6.108565   -1.099424   -0.569018
H     -2.475580   -1.218716    1.445156
H     -5.932990    0.712278    0.894419
H     -0.166505   -0.216205   -1.362682
H      1.282382   -1.694199    0.892190
H      3.501943   -1.033522    1.427139
H     -0.768719   -0.533464    1.609886
H      6.497457    1.535866   -0.206755
H     -5.598615    1.611381   -1.275121
