69

C     -2.058080    2.390157   -1.042081
C     -2.386699    3.694675   -0.681307
C     -4.335922    1.868031   -1.238763
C      2.939111    2.778605    0.157067
C      2.757701    0.941588    1.608026
C     -2.145929   -3.078225    2.119221
C     -3.909434   -1.821010    1.170309
C      3.853440   -1.508615   -0.742092
C      1.534486   -4.262900   -1.816122
C     -3.012548    1.438158   -1.331174
C      2.708141    1.430499    0.315653
C     -3.427791   -2.582904    2.214278
C      2.616348   -2.258175   -1.086927
C     -3.708324    4.051530   -0.609331
C      2.683937   -3.572936   -1.498766
C     -4.689895    3.136237   -0.888868
C     -1.341053   -2.837830    1.025439
C      0.289812   -3.681487   -1.737907
C      3.207885    3.605267    1.236589
C      3.023695    1.753384    2.687488
C      3.687790   -0.104321   -1.270351
C     -3.113752   -1.572211    0.068249
C     -1.846845   -2.078980    0.006055
C      0.202213   -2.368050   -1.328246
C     -1.098380   -1.741466   -1.226222
C      3.253045    3.097082    2.520658
C     -1.231829   -0.279496   -1.407726
C      2.418443    0.538829   -0.834391
C     -2.688415    0.033120   -1.714628
C      1.358232   -1.691021   -1.014239
O     -4.240355   -2.823867    3.315188
O     -4.083761    5.354819   -0.249855
O      3.933869   -4.203841   -1.592404
O     -6.023021    3.493220   -0.817285
O     -0.031502   -3.360465    0.961023
O     -0.860569   -4.432488   -2.075115
O      3.443105    4.970345    1.086151
O      3.061795    1.213943    3.959434
O      4.804089    0.628428   -0.825551
O      3.525274    3.931623    3.618639
O     -0.421514    0.270917   -2.379847
O     -3.597193   -0.790564   -1.009980
O      1.357818   -0.352565   -0.587948
H     -1.009496    2.131559   -1.094379
H     -1.645510    4.436856   -0.456013
H     -5.128519    1.158249   -1.456228
H      2.908485    3.203038   -0.850867
H      2.573824   -0.130897    1.737782
H     -1.749573   -3.687978    2.946542
H     -4.924785   -1.400601    1.191115
H      4.741214   -2.004987   -1.201351
H      3.978867   -1.484211    0.347077
H      1.583853   -5.314807   -2.146165
H      3.773889   -0.155845   -2.385129
H     -1.725092   -2.205274   -2.062127
H     -0.995405    0.215975   -0.446733
H      2.074969    1.191292   -1.674148
H     -2.877699   -0.098112   -2.819912
H     -4.225224   -2.183906    4.102859
H     -5.055460    5.614976   -0.197433
H      3.982192   -5.165617   -1.893782
H     -6.785122    2.872435   -1.008263
H      0.282245   -3.910583    1.742792
H     -0.804816   -5.377783   -2.366906
H      3.438115    5.455841    0.211111
H      3.249869    1.750921    4.788739
H      5.220079    0.219404   -0.026049
H      3.694231    4.913137    3.508672
H     -0.982551    0.739876   -3.051888
