57

C     -2.377266   -1.166777   -1.190090
C      2.154270   -1.833514   -0.715276
C     -1.848212    1.781944   -1.546276
C     -0.373438    1.748370   -1.242118
C      2.549575    0.844491   -1.351610
C      3.836390    0.464228   -0.626631
C     -4.464960   -0.493001    0.936805
C     -2.959612   -0.585509    1.183439
C     -4.119747    1.306293   -0.665412
C      1.226769   -1.209673    1.446572
C      5.716496   -0.708469    1.572531
C     -2.637792    1.198904   -0.421809
C     -4.853352    0.907332    0.597318
C      0.114559    0.359321   -0.894238
C      1.499414    0.513239   -0.353176
C      3.401830   -0.177086    0.688662
C     -0.167863   -1.340922    0.887811
C      4.342533   -1.127916    1.225508
C     -0.741923   -0.123618    0.285825
C     -2.185911   -0.195003   -0.056475
C      2.066028   -0.731557    0.294380
O      5.849089    0.647028    1.292800
O     -6.217953    0.933003    0.313846
O     -0.702971   -2.425650    0.975461
O      4.029141   -2.288568    1.403707
H     -2.548796   -0.662415   -2.163052
H     -1.480958   -1.808520   -1.333610
H     -3.231331   -1.842466   -1.030839
H      3.197366   -2.015804   -1.066397
H      1.551451   -1.647171   -1.609285
H      1.810274   -2.810706   -0.290976
H     -2.086591    1.355056   -2.533369
H     -2.123860    2.870818   -1.610950
H      0.179055    2.199633   -2.072106
H     -0.217636    2.388524   -0.343458
H      2.423274    0.230495   -2.283465
H      2.562091    1.897310   -1.665598
H      4.469339   -0.201811   -1.223188
H      4.433087    1.380303   -0.410610
H     -4.778242   -1.151758    0.108436
H     -4.951593   -0.876504    1.853367
H     -2.779447   -1.595645    1.542230
H     -2.733912    0.181006    1.951389
H     -4.472663    0.658743   -1.476306
H     -4.352637    2.353226   -0.863248
H      1.622880   -2.186056    1.764482
H      1.271692   -0.489973    2.267252
H      5.858058   -0.790527    2.691748
H      6.492363   -1.308565    1.054193
H     -2.427204    1.833838    0.485747
H     -4.634717    1.585709    1.439961
H      0.022581   -0.304452   -1.754983
H      1.468513    1.347268    0.394340
H      3.190332    0.694926    1.369980
H     -0.624824    0.693321    1.057685
H      6.522812    0.730951    0.574408
H     -6.765851    0.994353    1.134668
