44

C     -3.275801    0.339827   -0.081817
C      4.715163   -0.687796    0.076526
C      3.294360   -2.208382   -1.012469
C     -2.293384    4.339592   -0.517178
C     -1.428217    5.116585    0.204576
C     -1.304086   -3.746905   -0.908894
C     -2.189976    2.987660   -0.635278
C     -1.459665   -2.401513   -1.240443
C     -0.409341    4.450495    0.831853
C      1.050126   -0.759291    0.716816
C     -1.325267   -4.165259    0.398430
C      2.449125   -0.312093    0.179361
C     -1.864500   -0.049348   -0.615110
C     -1.639047   -1.445026   -0.256843
C     -1.143385    2.262570    0.005574
C     -0.310670    3.063321    0.706139
C      0.214449    0.469261    0.613551
C     -0.846054    0.925112   -0.017026
C     -1.656506   -1.899101    1.051947
F     -1.824314   -0.981867    2.053814
N     -1.502600   -3.210426    1.332737
N      3.399492   -1.375803    0.202471
S      0.929259    2.000927    1.365289
H     -3.138204    1.197746    0.581051
H     -3.958372    0.532656   -0.894441
H     -3.617398   -0.507664    0.566255
H      5.074159   -0.742974   -0.950659
H      5.428704   -1.155909    0.790677
H      4.641164    0.368923    0.417465
H      2.227434   -2.376430   -1.203384
H      3.810346   -1.687366   -1.861751
H      3.780346   -3.166946   -0.818966
H     -3.105223    4.861601   -1.010680
H     -1.555185    6.168202    0.260036
H     -1.162785   -4.478130   -1.693068
H     -2.924418    2.508446   -1.257654
H     -1.440325   -2.090935   -2.279134
H      0.342131    4.975821    1.428313
H      1.189357   -1.121971    1.719484
H      0.787164   -1.498253   -0.056321
H     -1.212803   -5.221735    0.704188
H      2.372243    0.108657   -0.821663
H      2.786298    0.443703    0.928548
H     -1.903795    0.170017   -1.682261
