23

C     -3.243405    0.515052    0.109830
C      3.697081    0.020778    1.086892
C     -1.431096   -1.279316   -1.228667
C     -1.870269    1.007042   -0.318899
C      2.792359    0.321959   -0.081962
C     -0.950136   -0.195059   -0.286670
C      1.376631   -0.026131    0.241159
O      1.126254   -0.498941    1.378566
O      0.357069    0.155489   -0.661692
H     -4.032332    1.257884   -0.106852
H     -3.169858    0.285376    1.196790
H     -3.472666   -0.413728   -0.444957
H      3.602732    0.791914    1.880863
H      4.744412    0.022853    0.681662
H      3.460470   -0.969518    1.527121
H     -2.167891   -1.953893   -0.761193
H     -1.841223   -0.859315   -2.149016
H     -0.534178   -1.922490   -1.461362
H     -1.449381    1.744269    0.396199
H     -1.903348    1.425172   -1.344122
H      2.794859    1.406283   -0.311435
H      3.102787   -0.241268   -0.973345
H     -0.988870   -0.594411    0.746224
