44

C     -4.346899   -2.032386   -1.811827
C     -2.705919    3.121247   -0.491632
C      1.255607    2.328486    1.777928
C      1.936191    2.969082    0.833077
C      1.360662   -0.072893    2.736500
C      1.435787   -1.447488    2.163575
C     -1.752627   -1.627703   -0.849952
C     -0.921969    0.892554   -0.194836
C      2.202337    0.843152   -0.499700
C      1.810734   -2.154405   -0.122451
C      1.325943    0.842173    1.803774
C      2.712329    2.181039   -0.121047
C     -0.459277   -1.408067   -0.368013
C     -0.022901   -0.144420   -0.032714
C      0.391819   -2.612011   -0.243157
C     -2.578474   -0.562162   -0.982549
C     -2.209717    0.719256   -0.668055
C      1.358923    0.125602    0.484873
N      1.971451   -1.130381    0.846358
O      3.985622    1.981445    0.467961
O      0.210141   -3.451738   -1.348358
O     -3.868818   -0.741546   -1.457712
O     -3.040085    1.811163   -0.798264
H     -5.378364   -1.907451   -2.183418
H     -3.674970   -2.383294   -2.636241
H     -4.310182   -2.753662   -0.991408
H     -2.567099    3.325356    0.591049
H     -1.692381    3.318849   -0.951943
H     -3.379158    3.854122   -0.977728
H      0.664075    2.813216    2.525961
H      1.891807    4.070946    0.799855
H      1.334222    0.160692    3.786032
H      0.489067   -1.968400    2.165770
H      2.177809   -2.026820    2.743161
H     -2.069781   -2.634058   -1.106489
H     -0.614194    1.897176    0.058763
H      3.071593    0.239971   -0.863435
H      1.573171    0.987236   -1.428590
H      2.110777   -1.742853   -1.104285
H      2.512915   -2.978149    0.118217
H      2.916317    2.843799   -0.994493
H      0.020845   -3.195284    0.623608
H      4.700297    2.047587   -0.204498
H      0.172374   -4.398980   -1.093663
