42

C      2.224592   -0.687051    0.498003
C     -3.251895   -0.403781    0.081046
C      2.024449    0.770283   -1.335706
C     -0.810906   -0.936489    0.593811
C     -0.975768    0.518691   -1.170032
C     -2.008631   -0.085567    0.843447
C      1.385318   -0.010186   -0.398404
C      3.595270   -0.572542    0.437057
C     -1.917423    1.096467   -0.100157
C      4.152386    0.230974   -0.533929
Cl     4.649034   -1.421129    1.560993
Cl     5.913924    0.359439   -0.588866
N     -3.313497    0.971260   -0.436430
N      3.367312    0.873644   -1.384368
N     -0.021001   -0.142778   -0.318481
C     -2.383213   -0.301682    0.116380
C     -1.858036    0.929466    0.453297
C     -1.504082   -1.289900   -0.275626
C     -0.502411    1.168845    0.401642
C     -0.139721   -1.100227   -0.343681
C      0.347898    0.143190    0.000591
O      2.776263   -0.023389    1.378825
O      2.404612    1.820735   -0.402766
O      2.591888   -0.441293   -1.220081
S      2.083610    0.376066   -0.088045
H      1.777110   -1.318676    1.260704
H     -4.162040   -0.560215    0.712091
H     -3.182298   -1.179050   -0.700773
H      1.417762    1.326067   -2.067794
H     -0.263153   -1.239431    1.500444
H     -1.147026   -1.874172    0.068528
H     -1.560995   -0.257085   -1.707607
H     -0.579603    1.296922   -1.815481
H     -2.219579    0.178555    1.897047
H     -1.587335    2.032356    0.344000
H     -3.506008    1.033495   -1.458400
H     -3.462470   -0.479335    0.161564
H     -2.546874    1.711175    0.762770
H     -1.913585   -2.261237   -0.541901
H     -0.072268    2.117635    0.658913
H      0.544318   -1.894249   -0.656571
H      3.634071   -0.475799    1.192654
