83

C      1.746899   -0.318630   -2.468607
C     -3.084123    0.464913   -2.163081
C      1.760039    0.612569   -3.499474
C     -3.424938    1.466455   -3.027747
C      0.744085    1.237480   -1.017580
C     -5.403974   -0.077516   -1.954492
C      6.044757    0.625237   -0.748436
C      5.744526    2.634380    0.449654
C     -3.758487    0.261307    3.943782
C     -5.385432    0.121148    2.201607
C      2.437352   -2.087649    1.692188
C     -0.255551   -4.024562    3.483169
C      1.240862   -0.022963   -1.215860
C     -4.072349   -0.307095   -1.626154
C      5.293239    1.384142    0.111648
C     -4.977471    0.626613    3.416493
C      1.116491   -2.595078    2.106087
C      1.265452    1.861697   -3.296085
C     -4.755340    1.711800   -3.368945
C      0.991343   -3.560917    3.099952
C      0.756159    2.171025   -2.047747
C     -5.763323    0.942116   -2.836261
C     -2.910284   -0.613637    3.284076
C     -1.399975   -3.521922    2.869651
C      7.246081    1.129936   -1.262933
C      6.924336    3.156873   -0.042222
C     -4.542916   -0.752756    1.538230
C      2.326817   -0.847898    0.874828
C     -3.311783   -1.110327    2.090370
C     -1.306829   -2.554143    1.869854
C     -2.506850   -2.064551    1.263510
C      7.673157    2.385424   -0.906921
C     -2.439824   -1.465345   -0.110959
C      1.265066   -1.070675   -0.180472
C     -3.843017   -1.417033   -0.675586
C     -0.030489   -2.126777    1.527439
C      4.050059    0.892084    0.656163
O     -5.818955    1.501772    4.083083
O      1.237120    2.862346   -4.272440
O     -5.038343    2.730818   -4.242107
O      2.142260   -4.049514    3.697903
O      0.242046    3.455819   -1.821887
O     -7.097016    1.157018   -3.152740
O     -1.686615   -0.979796    3.812467
O     -2.601033   -4.043278    3.319160
O      7.973928    0.340736   -2.123114
O      7.377175    4.430248    0.306187
O      8.868035    2.944192   -1.390343
O     -1.720949   -2.261623   -1.001756
O      3.369808    1.611297    1.453243
O     -4.838317   -1.322626    0.320889
O      3.517909   -0.352946    0.366489
O      0.050544   -1.167614    0.537384
H      2.159489   -1.288764   -2.714758
H     -2.060898    0.242763   -1.878115
H      2.160345    0.367201   -4.478458
H     -2.623293    2.060687   -3.436431
H      0.346109    1.477422   -0.040225
H     -6.211338   -0.682260   -1.537531
H      5.766002   -0.367243   -1.067595
H      5.182237    3.278066    1.131394
H     -3.427434    0.660146    4.910803
H     -6.334471    0.378546    1.750226
H      2.977753   -1.828993    2.653903
H      3.067405   -2.874344    1.230564
H     -0.329749   -4.775410    4.257817
H      1.904221   -0.045331    1.550774
H     -3.201762   -2.955622    1.125552
H     -2.088405   -0.445615   -0.000050
H      1.462944   -2.062191   -0.634339
H     -4.080559   -2.363023   -1.246541
H     -5.606028    1.917334    4.968171
H      1.592939    2.706991   -5.209340
H     -5.973578    2.951647   -4.522085
H      3.033618   -3.699984    3.398315
H      0.243296    4.134229   -2.547094
H     -7.460624    1.854690   -3.768227
H     -1.418103   -0.591878    4.703358
H     -3.458755   -3.729184    2.936239
H      8.828478    0.627993   -2.525265
H      6.795535    4.974146    0.949382
H      9.474185    2.461933   -2.019303
H     -2.150921   -2.386525   -1.862693
