83

C      0.934472    0.595705   -2.523014
C     -4.577802    0.071354   -3.202907
C      0.571194    0.033520   -3.755283
C     -5.185019   -0.276238   -4.384575
C      1.701103   -1.488352   -1.704057
C     -5.181472   -2.032648   -2.251765
C      7.266892    2.651830    0.404147
C      5.252738    3.536376    1.279788
C     -3.499402    0.705530    3.906735
C     -5.270119    0.211487    2.410748
C      2.740542   -0.692062    1.782208
C     -0.094905   -3.091626    2.421162
C      1.488011   -0.144740   -1.512809
C     -4.573220   -0.813782   -2.118529
C      5.930584    2.490442    0.688281
C     -4.843633    0.642267    3.655113
C      1.429689   -1.348399    1.812503
C      0.790756   -1.316318   -3.927107
C     -5.803478   -1.508895   -4.525883
C      1.187680   -2.563699    2.411116
C      1.350102   -2.080418   -2.919584
C     -5.797759   -2.364866   -3.477703
C     -2.590333    0.342446    2.929961
C     -1.181555   -2.469679    1.857270
C      7.873137    3.880315    0.736718
C      5.856674    4.747295    1.604118
C     -4.340725   -0.146653    1.444209
C      3.001464    0.041846    0.481071
C     -2.984497   -0.099048    1.658283
C     -0.926260   -1.250629    1.259569
C     -2.021765   -0.486473    0.617713
C      7.192819    4.909835    1.323749
C     -2.653492   -1.167223   -0.547746
C      1.792576    0.508313   -0.238555
C     -3.926631   -0.373253   -0.878324
C      0.351288   -0.687084    1.226672
C      5.186362    1.253490    0.343311
O     -5.748699    1.008302    4.644948
O      0.436422   -1.917334   -5.150330
O     -6.412898   -1.848323   -5.718364
O      2.224922   -3.253492    3.001366
O      1.525617   -3.414748   -3.199353
O     -6.402900   -3.602532   -3.568775
O     -1.229303    0.403051    3.175067
O     -2.470098   -2.945050    1.831181
O      9.232449    4.087792    0.467460
O      5.144777    5.776374    2.191784
O      7.863541    6.110911    1.631668
O     -1.801228   -1.028300   -1.652213
O      5.691896    0.305414   -0.292006
O     -4.839897   -0.563458    0.217454
O      3.872499    1.137745    0.735658
O      0.628520    0.532159    0.623273
H      0.782721    1.651005   -2.350295
H     -4.111822    1.038022   -3.131952
H      0.136559    0.648467   -4.528544
H     -5.212455    0.379309   -5.250417
H      2.139001   -2.099239   -0.937794
H     -5.188923   -2.726007   -1.430309
H      7.823846    1.870092   -0.055089
H      4.180909    3.384666    1.485261
H     -3.135429    1.032246    4.852935
H     -6.332951    0.164937    2.227191
H      2.731173    0.103684    2.574833
H      3.526254   -1.428553    1.974293
H     -0.260757   -4.069844    2.902386
H      3.571822   -0.679290   -0.137029
H     -1.620156    0.489792    0.205072
H     -2.886429   -2.200079   -0.319254
H      1.945314    1.613922   -0.463268
H     -3.640328    0.691308   -0.917049
H     -6.727487    0.949750    4.429947
H      0.595738   -2.932098   -5.277426
H     -6.425381   -1.195267   -6.515592
H      3.177360   -2.993772    3.068264
H      1.925038   -4.093875   -2.544789
H     -6.408719   -4.268523   -2.831606
H     -0.864093    0.711381    4.069824
H     -2.728330   -3.827737    2.246222
H      9.676210    4.955608    0.696432
H      4.149615    5.566458    2.400836
H      7.309636    6.859426    2.077152
H     -2.289569   -0.604265   -2.395720
