48

C      7.717124    0.243306    0.364495
C     -6.049168    2.288020    1.143451
C     -1.820855   -3.700759    1.560570
C     -1.494205    1.694397   -1.080038
C     -2.755210   -0.354354   -1.758445
C      3.445471    0.321753   -0.592531
C      1.947472    0.193257   -0.382168
C      4.011021    0.893763    0.674639
C     -2.791097    0.392669    0.589313
C      6.243572   -0.005665    0.420350
C     -4.861213    1.417632    1.419080
C     -1.177003   -2.394988    1.276480
C     -0.774276   -0.593351   -0.349535
C      0.073322   -0.713926   -1.558408
C     -1.958094    0.328539   -0.672757
N      1.300357   -0.354880   -1.558678
O      5.778842   -1.152563    0.294274
O     -4.709470    0.895633    2.548739
O     -0.482608   -1.766217    2.116414
O     -0.436569   -1.230734   -2.763635
O      5.407406    1.069732    0.615684
O     -3.939255    1.202541    0.406437
O     -1.340228   -1.829889    0.030673
H      7.946097    0.976121    1.161247
H      8.287488   -0.686266    0.542593
H      8.018209    0.665940   -0.608806
H     -5.669184    3.321214    1.011269
H     -6.792254    2.204972    1.959775
H     -6.501914    1.929398    0.190036
H     -2.911805   -3.686537    1.353065
H     -1.395358   -4.514835    0.937991
H     -1.676045   -3.920777    2.646733
H     -2.163664    2.069333   -1.904848
H     -0.433851    1.748652   -1.363607
H     -1.632501    2.448450   -0.251719
H     -3.844300   -0.209824   -1.571757
H     -2.484125    0.020401   -2.774154
H     -2.590660   -1.455623   -1.774647
H      3.808965   -0.688596   -0.817996
H      3.582426    1.010938   -1.453321
H      1.809067   -0.522060    0.445357
H      1.513470    1.158121   -0.088935
H      3.759305    0.271999    1.566292
H      3.488966    1.872481    0.855320
H     -3.078385   -0.668976    0.818020
H     -2.157282    0.776217    1.411461
H     -0.188990   -0.117663    0.438370
H     -0.029010   -0.846996   -3.605007
