41

C      0.696105    0.681699    2.048196
C     -2.583647   -2.322666    1.735060
C      3.940649   -0.216631   -1.306722
C      3.221528   -1.464904   -1.646719
C      3.643497    0.510973   -0.240295
C      2.185416   -2.040889   -1.038377
C     -2.730441    0.845492   -1.166257
C     -3.400406    2.186809   -0.965631
C      1.363873    0.867629    0.709050
C     -1.890639   -1.819113    0.516174
C      2.767783    0.254312    0.900754
C      1.440732   -1.374180    0.091996
C     -1.226849    1.137354   -1.079761
C     -2.335574    2.997855   -0.341220
C      0.887104   -0.037095   -0.355379
C     -0.549274   -0.098174   -0.648260
O     -1.894266   -2.492514   -0.551394
O     -2.467461    4.228146   -0.091773
O     -1.222019   -0.609985    0.498221
O      2.422268   -1.086666    1.051295
O     -1.250568    2.170160   -0.111164
H     -0.093499    1.413732    2.262047
H      1.472739    0.852136    2.853812
H      0.391163   -0.372168    2.171082
H     -3.655334   -2.070915    1.668001
H     -2.090265   -1.919064    2.644192
H     -2.461634   -3.417712    1.741304
H      4.728881    0.091196   -1.963349
H      3.585515   -1.997282   -2.520452
H      4.150801    1.465264   -0.229253
H      1.857656   -3.007580   -1.349090
H     -3.006577    0.346241   -2.092401
H     -2.979362    0.240779   -0.269629
H     -3.748450    2.628230   -1.918441
H     -4.303191    2.097219   -0.310059
H      1.474367    1.912581    0.419311
H      3.185706    0.584911    1.872587
H      0.659455   -2.039456    0.459049
H     -0.934269    1.508101   -2.080728
H      1.451090    0.234542   -1.288344
H     -0.702602   -0.868366   -1.444880
