48

C      7.486739   -0.800777    0.336967
C     -4.381692    3.783655   -2.110331
C     -1.756822   -4.165874    1.265897
C     -3.066426   -0.560867   -0.630315
C     -3.147478    0.887133    1.335776
C      3.149144    0.080887    0.350696
C      1.636798   -0.041416    0.200106
C      3.861011   -0.485384   -0.851467
C     -1.725950    1.471391   -0.625405
C      5.989779   -0.964588    0.278107
C     -3.523933    3.117134   -1.054312
C     -1.264838   -2.884425    0.652558
C     -1.098530   -0.420317    0.750806
C     -0.200249    0.336845    1.626833
C     -2.283212    0.431405    0.249899
N      1.063890    0.528934    1.400515
O      5.381429   -1.640882    1.150765
O     -3.749698    3.475744    0.102159
O     -0.620684   -2.913335   -0.406970
O     -0.639671    0.940369    2.826055
O      5.245771   -0.380601   -0.729604
O     -2.598430    2.210427   -1.383311
O     -1.495647   -1.663930    1.214121
H      7.926366   -1.793742    0.563346
H      7.687209   -0.033077    1.084572
H      7.795009   -0.429778   -0.661736
H     -5.429133    3.776877   -1.728845
H     -4.018795    4.809311   -2.194179
H     -4.296174    3.227098   -3.047777
H     -1.209514   -5.003965    0.801424
H     -2.846629   -4.202089    1.049364
H     -1.631530   -4.144731    2.370594
H     -2.358327   -0.917118   -1.404778
H     -3.357110   -1.423804   -0.010308
H     -3.919831   -0.059584   -1.115055
H     -2.855358    1.788431    1.887003
H     -4.178779    1.026800    0.958880
H     -3.318674    0.034007    2.104983
H      3.432010   -0.376268    1.300257
H      3.364820    1.171628    0.380104
H      1.409627   -1.132875    0.103315
H      1.276629    0.470019   -0.692294
H      3.526925   -1.550846   -0.956822
H      3.505495    0.032397   -1.760959
H     -1.083041    2.212633   -0.048532
H     -0.961500    1.016879   -1.343443
H     -0.539296   -0.617782   -0.192007
H     -0.181697    1.778048    3.178748
