48

C      5.063601    1.744341    0.716033
C     -1.005556   -3.738645   -0.767602
C     -2.119485    2.938502   -0.252369
C     -3.131775    3.113279    0.828876
C      4.248736    0.389418   -1.728044
C      2.780883    0.032459   -1.800598
C     -0.187588    0.293633    0.103223
C      2.836865    0.606323    0.623574
C     -3.640990    0.203810    0.878253
C      4.316978    0.421095    0.601973
C     -0.715853   -2.322725   -0.462377
C     -2.073052    2.019113    0.992816
C     -3.992236   -1.099403    0.616908
C     -1.457854   -0.176033    0.273509
C      0.868102   -0.500704   -0.349706
C     -1.723096   -1.509342   -0.015641
C      0.548646   -1.809634   -0.619910
C     -3.006968   -1.980378    0.157460
C     -5.330860   -1.616153    0.790663
F      1.540516   -2.617868   -1.061736
N      4.788615   -0.302513   -0.564012
N      2.151507    0.042514   -0.503660
N     -2.400670    0.675998    0.715528
O     -3.296041   -3.182335   -0.091642
O     -5.577265   -2.813013    0.532997
O     -6.361282   -0.809305    1.241112
H      4.506317    2.549192    0.158606
H      6.097995    1.644296    0.312457
H      5.145813    2.019968    1.785276
H     -1.303140   -4.332183    0.142570
H     -0.042386   -4.205875   -1.141714
H     -1.705768   -3.884462   -1.615502
H     -2.488942    2.518746   -1.189665
H     -1.333649    3.690951   -0.365238
H     -4.172043    2.800587    0.618613
H     -3.055442    4.037661    1.400662
H      4.719446    0.010562   -2.652437
H      4.397740    1.480713   -1.589559
H      2.723745   -0.974066   -2.290596
H      2.291078    0.818341   -2.409868
H      0.014158    1.329814    0.328953
H      2.644769    1.717574    0.638902
H      2.411038    0.224846    1.577832
H     -4.405601    0.867662    1.229594
H      4.631011   -0.183866    1.486748
H     -1.290054    2.320025    1.706722
H      4.364740   -1.273846   -0.495497
H     -7.274703   -1.179078    1.507512
