36

C     -4.051037    2.357936    0.079675
C     -2.955680   -2.913278   -1.214516
C      3.523816   -0.185617   -0.877911
C      2.230401   -0.933375   -1.110245
C      1.004133    1.756343    0.910571
C      3.668156   -0.258062    0.614406
C      1.890987    0.898705    1.762091
C     -1.402494    1.401829    0.330925
C     -0.895047   -1.217003   -0.319370
C     -0.120290    0.908267    0.443756
C      0.149845   -0.403872    0.121067
C      1.508423   -0.945388    0.234807
C     -2.433323    0.576266   -0.110297
C     -2.175832   -0.730174   -0.433839
N      2.359004   -0.290814    1.164636
O     -3.735005    1.032846   -0.237597
O     -3.215954   -1.565715   -0.879751
H     -3.939040    2.579251    1.153870
H     -3.425408    3.044121   -0.553004
H     -5.117610    2.556327   -0.218402
H     -2.385237   -2.944073   -2.157650
H     -2.355227   -3.407045   -0.402392
H     -3.905311   -3.466117   -1.295030
H      3.497286    0.844874   -1.266868
H      4.386464   -0.685644   -1.373996
H      2.471734   -1.946370   -1.467647
H      1.591644   -0.414492   -1.860401
H      1.533927    2.248393    0.075103
H      0.617086    2.574656    1.558570
H      4.156316   -1.251846    0.836893
H      4.332723    0.509728    1.037413
H      2.755405    1.498155    2.139545
H      1.307345    0.630640    2.679263
H     -1.642203    2.419709    0.575253
H     -0.686251   -2.247072   -0.573347
H      1.456256   -2.032091    0.541764
