36

C      3.934296    2.327064   -0.047934
C      2.824925   -3.100745   -0.365904
C     -2.587891   -0.433077   -1.518175
C     -2.040175   -1.623300   -0.718544
C     -1.074708    1.942841    0.741009
C     -3.479265    0.187441   -0.434883
C     -2.293328    1.320997    1.331005
C      1.305209    1.439261    0.302933
C      0.694372   -1.252149    0.155279
C      0.010612    0.972098    0.472939
C     -0.325625   -0.356715    0.405747
C     -1.681252   -0.886587    0.580062
C      2.301484    0.526430    0.054767
C      1.991564   -0.810384   -0.017501
N     -2.695688    0.089607    0.751859
O      3.600705    0.957601   -0.119312
O      3.033863   -1.717687   -0.272742
H      3.617389    2.810810   -1.011295
H      5.050285    2.426124    0.082348
H      3.470021    2.814318    0.833044
H      3.736735   -3.537682   -0.857635
H      2.654487   -3.557730    0.645175
H      1.946070   -3.320361   -1.018583
H     -1.752988    0.241808   -1.700550
H     -3.157512   -0.749965   -2.385744
H     -1.169413   -2.075125   -1.191061
H     -2.864376   -2.320901   -0.492182
H     -1.279513    2.568387   -0.154386
H     -0.666170    2.663537    1.508623
H     -3.823131    1.184763   -0.699617
H     -4.338275   -0.536207   -0.326817
H     -2.189801    1.213026    2.429702
H     -3.139571    2.054451    1.184074
H      1.508198    2.499753    0.367328
H      0.535172   -2.322349    0.082797
H     -1.656702   -1.639354    1.404178
