32

C      4.598278    0.062637   -0.169937
C     -0.266717   -2.509866    0.345812
C     -2.569358    1.886550   -0.539438
C     -2.755222   -1.002400    0.336561
C     -2.218363   -0.210288    1.533391
C      2.302603   -0.950979    0.053420
C      2.329538    1.323130   -0.205511
C      3.111910    0.092769   -0.102950
C     -0.245759   -1.018006    0.180355
C      0.917196   -0.440718    0.061379
C      1.064531    1.000646   -0.109531
C     -0.192433    1.780803   -0.150315
C     -1.379406    0.996278   -0.602184
C     -1.489814   -0.259864    0.173393
O     -0.195427    2.976448    0.173681
O     -1.145804    0.653588   -1.948423
H      4.978479    0.242230    0.872987
H      4.951190    0.883042   -0.843260
H      4.977858   -0.898001   -0.560142
H      0.718099   -2.935085    0.089634
H     -0.471115   -2.704064    1.407036
H     -1.031584   -2.973577   -0.334537
H     -3.536822    1.343694   -0.645084
H     -2.573648    2.553984    0.352811
H     -2.520687    2.580546   -1.422091
H     -2.710898   -2.101167    0.421241
H     -3.720866   -0.633392   -0.054303
H     -1.768608   -0.789657    2.358997
H     -2.666366    0.765106    1.738466
H      2.575519   -1.991363    0.158093
H      2.700476    2.328835   -0.336121
H     -1.766778   -0.051858   -2.233431
