21

C     -1.611827   -1.590700    0.100402
C     -0.742662   -0.619934    0.867689
C      1.155020   -0.182821   -0.720560
C      2.215684   -0.259897    0.280516
C     -2.084391   -0.758942   -1.037439
C     -0.175399    1.689767    0.212966
C     -0.182173    0.263824   -0.187616
O      2.281829   -1.264510    1.028132
O      3.173973    0.722340    0.461894
O     -3.158494   -0.823059   -1.694233
O      0.550261    2.094891    1.171507
O     -0.941802    2.662982   -0.413689
O     -1.097350    0.160474   -1.284353
H     -2.485169   -1.927115    0.698270
H     -1.014864   -2.440485   -0.280712
H     -0.011678   -1.207048    1.434042
H     -1.407529   -0.044373    1.573444
H      0.967548   -1.158631   -1.241620
H      1.400180    0.524320   -1.567077
H      4.131585    0.527183    0.745403
H     -0.962740    3.631733   -0.148907
