53

C      6.731176   -0.130885    0.630744
C      6.479224   -2.480023    0.918418
C     -7.062290   -1.098639    1.763258
C     -7.003458    0.326410   -0.097923
C      4.520370   -1.181849    0.298635
C     -4.876440   -0.129181    1.120562
C      8.081918   -0.263483    0.946655
C      7.808900   -2.642836    1.234104
C     -8.414757   -1.274543    1.602134
C     -8.372500    0.151980   -0.265743
C      3.855646   -0.082742   -0.008852
C     -4.089108    0.602072    0.383502
C      0.075458    1.485245   -2.259829
C      5.928539   -1.243408    0.616972
C     -6.309183   -0.290013    0.916271
C      8.593012   -1.506359    1.240337
C     -9.089389   -0.650554    0.583720
C      0.352616    0.912831   -0.930863
C      0.906165    0.839418   -3.300726
C      2.431930   -0.138654   -0.313335
C     -2.673551    0.690702    0.678039
C     -0.476600    1.546595    0.184198
C     -0.052000    2.911363    0.500918
O      9.936776   -1.684501    1.561358
O    -10.466429   -0.838536    0.431348
O      0.776488    1.204361   -4.529241
O      1.837342   -0.144507   -3.095964
O      1.852076   -1.278667   -0.273221
O     -2.209409    0.061100    1.645381
O     -0.890264    3.849815    0.506475
O      1.251207    3.268628    0.807660
O      1.727743    1.011968   -0.636921
O     -1.853714    1.452863   -0.091426
H      6.329049    0.839629    0.400787
H      5.862380   -3.379434    0.914303
H     -6.522724   -1.587657    2.564453
H     -6.454889    0.960504   -0.774594
H      3.939869   -2.126987    0.310092
H     -4.413526   -0.664841    1.962968
H      8.720327    0.603745    0.960180
H      8.207489   -3.618109    1.463924
H     -8.963342   -1.905742    2.274364
H     -8.877341    0.655169   -1.075378
H      4.381205    0.854146   -0.031122
H     -4.484262    1.148210   -0.453141
H      0.268258    2.574420   -2.348301
H     -0.991761    1.249873   -2.554183
H      0.067792   -0.158611   -0.902483
H     -0.283322    0.916116    1.074656
H     10.577927   -1.868121    0.826850
H    -10.816160   -1.585828   -0.139144
H      2.735805   -0.134025   -3.566056
H      1.409730    3.971573    1.531174
