62

C     -3.298487   -2.740047   -2.163421
C      1.451354    4.674117    0.620938
C      4.479427   -1.654494    3.931880
C     -1.669055    1.773668    2.425825
C     -2.265089    1.596878   -0.150590
C     -0.431951    1.438349    3.204648
C     -1.523014    1.784716   -1.415828
C      1.134779   -0.841773   -2.082955
C      0.301375   -2.065842   -2.256995
C      1.429811   -0.874093    0.818676
C     -2.034574   -3.365124   -0.148099
C      1.506644    1.334060   -1.138898
C     -1.932636   -2.989976   -1.609641
C      1.936271    3.526410   -0.208025
C     -1.439257    1.265001    1.029006
C      0.336013    0.516449    2.295226
C      1.400024   -0.273524    2.172700
C     -0.745156    0.629892   -1.940419
C     -0.416481    0.509879    1.064049
C     -1.615112   -0.573850   -2.240200
C      2.412766   -0.530639    3.211356
C     -0.695800   -1.579490   -0.139440
C      0.488988    0.231200   -1.221457
C     -1.044050   -1.783689   -1.569436
C      0.223281   -0.408783    0.124580
N     -1.248142   -2.449541    0.590484
O      3.083017    3.558100   -0.743514
O     -1.636113   -0.869108   -3.624511
O      2.293064    0.030276    4.327280
O      3.475691   -1.362959    2.988214
O      1.111672    2.426073   -0.382129
H     -3.282135   -2.458689   -3.227110
H     -3.822059   -1.978628   -1.515591
H     -3.899080   -3.664241   -2.021364
H      2.023005    5.589380    0.341344
H      1.606890    4.403474    1.666175
H      0.353846    4.829465    0.483584
H      5.389598   -1.041771    3.724061
H      4.133660   -1.555155    4.971689
H      4.800981   -2.715559    3.718531
H     -2.586034    1.355730    2.866400
H     -1.714572    2.896966    2.367601
H     -3.072439    0.815161   -0.219906
H     -2.796417    2.538643    0.078866
H     -0.688557    0.833237    4.097294
H      0.184352    2.334671    3.458591
H     -2.319090    1.975945   -2.203053
H     -0.954289    2.717386   -1.394878
H      2.174257   -1.052828   -1.761168
H      1.246201   -0.378877   -3.108625
H      0.736484   -2.970740   -1.775991
H      0.051947   -2.296045   -3.311386
H      1.370395   -1.988797    0.965193
H      2.389142   -0.714322    0.300661
H     -1.630482   -4.397308   -0.052693
H     -3.084146   -3.404558    0.142933
H      1.630110    1.705974   -2.200053
H      2.485498    0.956540   -0.850491
H     -1.419070   -3.775144   -2.208860
H     -0.381133    0.988487   -2.955124
H     -2.678016   -0.368728   -1.981760
H     -1.318105   -0.111806   -4.164174
