28

C     -4.059286    1.658121    0.956760
C     -3.431668    0.567491    0.158280
C     -1.957303    0.371797    0.470085
C     -1.472076   -0.756773   -0.411060
C      0.464556   -2.199563    0.223021
C      3.404187   -0.136329    0.251173
C     -0.022583   -1.039923   -0.188455
C      1.916692   -2.125683    0.332531
C      2.278679   -0.898287   -0.396705
C      3.706329    1.082983   -0.543295
O      2.733172   -2.888905    0.897691
O      3.063291    1.365048   -1.598115
O      4.726297    1.939977   -0.114974
O      1.055063   -0.189287   -0.358185
H     -3.292468    2.320925    1.407088
H     -4.755508    2.225588    0.288350
H     -4.661968    1.199857    1.770436
H     -3.466918    0.838548   -0.935778
H     -3.987835   -0.388610    0.231437
H     -1.430587    1.314666    0.314360
H     -1.912034    0.040114    1.545306
H     -2.081903   -1.648053   -0.159878
H     -1.696965   -0.489431   -1.455741
H     -0.120435   -3.102972    0.455330
H      4.311785   -0.787375    0.166449
H      3.251024    0.050197    1.311423
H      2.477930   -1.118027   -1.465106
H      4.960530    2.793908   -0.606949
