62

C     -2.791181   -3.515568    1.551050
C     -3.132207    4.861864   -0.645521
C      6.546011    0.890229    0.909095
C      2.136863   -0.334723   -2.930709
C     -0.434902   -0.946251   -2.581241
C      3.258078   -0.420013   -1.951274
C     -1.543499   -0.063083   -2.139166
C     -1.343300    0.999298    1.540171
C     -1.984511   -0.250405    2.028806
C      1.452916    0.569402    1.257403
C     -0.297010   -3.364862    1.788576
C     -0.419926    2.167219   -0.345118
C     -1.598425   -2.687808    1.924122
C     -2.435524    3.558936   -0.963102
C      0.903289   -0.514616   -2.112951
C      2.605372   -0.021395   -0.676860
C      2.783107    0.434410    0.554394
C     -1.785545    0.060777   -0.674673
C      1.197663   -0.221195   -0.886988
C     -2.067240   -1.335754   -0.150314
C      4.094587    0.745599    1.103952
C     -0.005684   -1.322974    0.949007
C     -0.817686    0.812243    0.118070
C     -1.453954   -1.413445    1.218195
C      0.463427   -0.039135    0.360983
N      0.589396   -2.393313    1.268938
O     -2.962406    2.832467   -1.820429
O     -3.427248   -1.606873   -0.158598
O      4.146521    1.172359    2.284623
O      5.265594    0.588928    0.379565
O     -1.308199    3.194987   -0.358640
H     -3.746411   -3.092288    1.920127
H     -2.689741   -4.505074    2.083502
H     -2.798884   -3.765570    0.471133
H     -3.660806    5.222698   -1.527129
H     -2.370937    5.589198   -0.252133
H     -3.869298    4.695773    0.156559
H      6.627634    0.658085    1.983298
H      6.753846    1.970558    0.689570
H      7.332129    0.308456    0.383016
H      2.200732   -1.068644   -3.753753
H      2.095780    0.717453   -3.325590
H     -0.598142   -2.027533   -2.457123
H     -0.379617   -0.815786   -3.709745
H      4.116946    0.234770   -2.199236
H      3.542291   -1.491245   -1.851422
H     -2.487812   -0.493253   -2.572296
H     -1.417080    0.903565   -2.685373
H     -2.104392    1.828514    1.537434
H     -0.523745    1.258409    2.234358
H     -3.078762   -0.202929    1.828986
H     -1.873473   -0.402193    3.118071
H      1.308306    1.564942    1.646318
H      1.605135   -0.078891    2.182503
H      0.070418   -3.844759    2.719761
H     -0.410261   -4.187202    1.027197
H      0.496504    2.548156    0.207284
H      0.004905    2.118023   -1.407780
H     -1.706624   -2.432866    3.026454
H     -2.786857    0.579359   -0.556127
H     -1.599157   -2.134145   -0.756583
H     -3.687005   -2.092882   -1.002649
