49

C      6.398106    2.108066   -0.217750
C      5.813602   -0.369975    0.274888
C      1.446360   -2.098596   -0.052258
C      3.065731    0.399842    0.492526
C      4.118207    1.411000    0.188493
C      2.034498    0.325125   -0.607408
C     -0.241145   -0.299687   -0.141610
C     -3.170282    1.368173   -1.425774
C     -3.332605    0.013761    0.942690
C     -3.425329   -2.134071   -0.200408
C      5.392591    1.057888    0.086918
C      1.010615   -0.694758   -0.255388
C     -4.426936    1.635210   -0.611379
C     -4.646499    0.533192    0.393292
C     -2.779014   -0.058679   -1.403717
C     -1.294320   -1.255964    0.201142
C     -2.375044   -3.099578   -0.650058
C     -2.681613   -0.793282   -0.150213
O     -4.304928    2.828265    0.118496
O     -5.510340    0.925127    1.406066
O     -2.541322   -0.600593   -2.458999
O     -2.616536   -4.288527   -0.982303
O     -1.170578   -2.410189   -0.611003
H      5.960261    2.752929   -1.012244
H      6.531325    2.754017    0.668201
H      7.363285    1.664020   -0.556221
H      6.875766   -0.449868    0.008340
H      5.630482   -0.689155    1.327894
H      5.175960   -0.977903   -0.431687
H      2.546600   -2.155227   -0.016092
H      1.050828   -2.455744    0.920491
H      1.123862   -2.767413   -0.874950
H      2.524783    0.716671    1.422013
H      3.551696   -0.547966    0.724544
H      3.841148    2.448035    0.048314
H      2.592673   -0.025217   -1.524518
H      1.616237    1.316165   -0.774972
H     -0.491867    0.743653   -0.303658
H     -2.386963    2.033787   -1.013544
H     -3.338774    1.735164   -2.477371
H     -3.603141   -0.634414    1.815807
H     -2.723523    0.880850    1.254377
H     -3.678223   -2.388091    0.837686
H     -4.274683   -2.099692   -0.886846
H     -5.273174    1.730617   -1.319395
H     -5.161780   -0.298470   -0.171002
H     -1.316841   -1.519225    1.293731
H     -3.859625    2.663630    0.989961
H     -5.039529    1.067101    2.270578
