35

C     -1.885612    1.571412    0.367001
C     -2.780060   -0.576163    0.759636
C      2.719346    1.637317   -0.491041
C      3.154729   -0.250734    0.836627
C     -2.637920    2.058738    1.427336
C     -3.518623   -0.106050    1.797809
C      3.896825    2.207327   -0.084502
C      4.346950    0.274458    1.277402
C      0.109007    0.409291   -1.412576
C      2.312911    0.398293   -0.046697
C     -1.942467    0.253653    0.016180
C     -3.458145    1.219515    2.147064
C      4.708313    1.527768    0.797245
C      1.073933   -0.220322   -0.463944
C     -1.162619   -0.318476   -1.095672
C     -1.231115   -2.858598   -0.930187
Cl    -4.411428    1.825071    3.486880
F      5.889788    2.024283    1.247468
N     -1.125758   -3.794025   -0.066195
N      0.621055   -1.351303   -0.108733
N     -0.603626   -1.628359   -0.708446
S     -2.173167   -3.122134   -2.409477
H     -1.268877    2.290146   -0.153008
H     -2.824800   -1.619603    0.481111
H      2.070618    2.160517   -1.184693
H      2.856928   -1.242659    1.209349
H     -2.589363    3.099592    1.700296
H     -4.166469   -0.769522    2.365949
H      4.201648    3.180146   -0.442211
H      4.998333   -0.254802    1.976072
H      0.047773    1.487562   -1.335071
H      0.473718    0.116527   -2.432476
H     -1.759042   -0.412707   -2.018464
H     -1.557509   -4.738863   -0.147561
H     -2.385274   -4.477298   -2.673019
