83

C     -8.635619   -5.213850    2.600375
C     -9.269760   -3.790939    0.746002
C      1.091602    1.983415   -0.961314
C      2.312844    1.949507   -0.127798
C      0.522648    0.601652   -1.169130
C      3.410314    1.097597   -0.637009
C     -0.716908    0.758622   -2.013769
C      3.932002    1.346558   -1.993638
C     -1.821921    1.510951   -1.344978
C      4.487900    2.657670   -2.332476
C     -2.338233    0.724375   -0.186884
C      5.602114    3.160870   -1.546612
C     -3.449656    1.376208    0.588025
C      6.882694    2.462590   -1.401269
C     -4.567986    1.725405   -0.367567
C      6.963289    1.194159   -0.653294
C     -5.784615    2.287685    0.276831
C      8.426564    0.724978   -0.723831
C     -6.474481    1.261573    1.183702
C      9.019002   -0.434208    1.387164
C      8.476819   -1.786287   -0.468577
C      9.244809   -1.543308    2.161395
C      8.706004   -2.928620    0.318413
C     -7.537633   -2.992231    2.397614
C     -8.105506   -4.126907    1.633243
C      8.629583   -0.522636    0.050583
C      9.089603   -2.827550    1.631149
C     -6.903952    0.111567    0.258239
C     -7.622054   -0.972217    0.994211
O      9.321224   -3.952956    2.422765
O     -7.780432    0.638524   -0.690722
O     -8.897350   -0.970009    0.904687
O     -7.004190   -1.929804    1.720658
H     -9.382390   -5.831264    2.045818
H     -9.097579   -4.742605    3.479219
H     -7.770767   -5.813069    2.899300
H     -9.787243   -4.785145    0.437196
H     -8.994121   -3.328654   -0.213053
H    -10.080520   -3.255189    1.241263
H      0.336945    2.678952   -0.477486
H      1.258602    2.410590   -1.975615
H      1.996365    1.486810    0.864111
H      2.660477    2.971581    0.186313
H      1.251301    0.019106   -1.759857
H      0.343330    0.134918   -0.185363
H      3.025505    0.033210   -0.629077
H      4.259238    1.082800    0.083886
H     -1.128350   -0.248170   -2.286965
H     -0.416384    1.322425   -2.921524
H      4.622111    0.515455   -2.284832
H      3.064793    1.126951   -2.765482
H     -1.570747    2.521763   -1.002721
H     -2.617646    1.658887   -2.125253
H      3.622981    3.416576   -2.166039
H      4.632591    2.786712   -3.452428
H     -1.500168    0.440038    0.509731
H     -2.685577   -0.270512   -0.590419
H      5.873275    4.216536   -1.925318
H      5.181681    3.439652   -0.502696
H     -3.799786    0.705261    1.425860
H     -3.125591    2.318529    1.073139
H      7.398043    2.353632   -2.402546
H      7.584878    3.188406   -0.869957
H     -4.120470    2.513999   -1.052933
H     -4.738689    0.858843   -1.021061
H      6.374798    0.348089   -0.963183
H      6.773562    1.324458    0.445395
H     -5.585021    3.206106    0.861852
H     -6.501069    2.592088   -0.510859
H      9.083405    1.555407   -0.424786
H      8.699972    0.519728   -1.792320
H     -5.745725    0.923704    1.926255
H     -7.354696    1.713785    1.639275
H      9.139468    0.565389    1.792181
H      8.166028   -1.874545   -1.510417
H      9.544340   -1.476872    3.189109
H      8.569871   -3.891387   -0.157385
H     -8.371868   -2.565441    3.068076
H     -6.792053   -3.425016    3.143710
H     -7.329395   -4.658263    1.029691
H     -6.006145   -0.325466   -0.172377
H     10.295722   -4.297107    2.405632
H     -8.466007    1.187411   -0.261247
