83

C    -10.697461    1.659425   -0.884364
C     -8.468254    2.012138   -1.737093
C      1.191537   -0.489286    0.070827
C      2.158898   -0.419785   -1.091711
C      0.994689    0.880091    0.695194
C      2.333210   -1.775224   -1.715139
C      0.050397    0.829034    1.846155
C      2.871147   -2.743530   -0.706837
C     -1.352864    0.323042    1.439485
C      4.195002   -2.252239   -0.191460
C     -2.159462    0.339403    2.680606
C      5.201815   -2.111136   -1.309978
C     -3.561656   -0.120399    2.634053
C      6.498831   -1.618142   -0.666398
C     -4.534249    0.601853    1.810539
C      7.578032   -1.443092   -1.710291
C     -4.365363    0.732574    0.355031
C      8.827270   -0.959951   -1.013045
C     -4.283775   -0.530271   -0.442199
C      8.881700    1.506297   -0.997179
C      8.228276    0.411144    1.004611
C      8.724144    2.746727   -0.396295
C      8.075527    1.651367    1.590439
C     -9.077294   -0.081811   -0.463869
C     -9.201798    1.385890   -0.595891
C      8.638288    0.333310   -0.311629
C      8.314757    2.836747    0.918913
C     -5.484983   -1.405107   -0.379595
C     -6.721294   -0.724197   -0.879946
O      8.159473    4.082637    1.513266
O     -5.639380   -1.947448    0.869690
O     -6.655805   -0.197446   -2.009039
O     -7.873439   -0.655118   -0.185100
H    -10.884147    1.623397   -1.967468
H    -11.286787    0.880453   -0.372067
H    -10.907706    2.664847   -0.432206
H     -8.614459    1.474172   -2.677053
H     -7.424025    2.298214   -1.507762
H     -8.983779    3.019791   -1.909504
H      0.212933   -0.854215   -0.279308
H      1.628926   -1.120707    0.876309
H      3.120841    0.028398   -0.798616
H      1.685537    0.233792   -1.892182
H      0.709732    1.637038   -0.063533
H      1.980950    1.184384    1.095588
H      2.964112   -1.747494   -2.625153
H      1.318571   -2.189493   -2.012781
H      0.432849    0.152922    2.620386
H     -0.123220    1.843522    2.242187
H      2.987117   -3.775590   -1.167595
H      2.184289   -2.878190    0.153297
H     -1.293594   -0.719334    1.044605
H     -1.639968    0.961644    0.619500
H      4.119873   -1.298301    0.335443
H      4.643827   -2.968120    0.542373
H     -1.576342   -0.283387    3.438125
H     -2.092257    1.371142    3.126723
H      5.341511   -3.091833   -1.784240
H      4.875975   -1.380251   -2.090865
H     -3.943477   -0.009087    3.713613
H     -3.610671   -1.241781    2.518357
H      6.341023   -0.637852   -0.181898
H      6.826461   -2.411746    0.026459
H     -4.545463    1.675206    2.211173
H     -5.588838    0.274746    2.039591
H      7.206430   -0.668235   -2.437057
H      7.828246   -2.383788   -2.216940
H     -3.696667    1.544905    0.014587
H     -5.395851    1.169724    0.005597
H      9.678986   -0.919961   -1.728375
H      9.074505   -1.723094   -0.242746
H     -3.396031   -1.146632   -0.212121
H     -4.159432   -0.214808   -1.515187
H      9.204981    1.480672   -2.031852
H      8.029615   -0.507446    1.568301
H      8.913221    3.670132   -0.928070
H      7.752598    1.731503    2.628775
H     -9.777825   -0.372209    0.392054
H     -9.576841   -0.551710   -1.367244
H     -8.926437    1.916902    0.341708
H     -5.320338   -2.262728   -1.090287
H      8.970859    4.469217    1.977952
H     -6.115735   -2.806232    0.797515
