52

C      3.385795    0.091908    0.377168
C      2.731367    1.252405    1.081514
C      4.824681    0.543369    0.083398
C      1.317337    0.910654    1.435717
C      5.489052   -0.607216   -0.617654
C      0.537652    0.605616    0.186289
C      6.901553   -0.263605   -0.957517
C     -6.696057   -1.970844   -0.352399
C     -6.690769   -0.959678   -1.506564
C     -1.600913    1.437558    1.285543
C     -0.898880    0.281678    0.559956
C     -5.239068   -1.746402   -0.213460
C     -5.213127   -1.228369   -1.638014
C     -2.805275    1.145225    0.475073
C      7.692671   -0.004822    0.250407
C     -1.907138    0.427488   -0.524021
C     -4.843266   -0.367733    0.231166
C     -4.293914   -0.158562   -1.187276
C     -3.465430   -0.181049    0.732627
C     -2.962800   -0.603557   -0.656168
O      7.259651   -0.128015    1.404838
O      9.035280    0.412438    0.134500
H      2.865287   -0.139146   -0.576151
H      3.407776   -0.767705    1.059210
H      3.326377    1.582434    1.960697
H      2.697799    2.087870    0.321151
H      5.249338    0.800590    1.045166
H      4.735473    1.407558   -0.616115
H      1.358481   -0.009910    2.077850
H      0.832374    1.751060    2.000066
H      5.434126   -1.536322    0.024945
H      4.891788   -0.857250   -1.537266
H      0.936394   -0.376087   -0.212062
H      0.605727    1.413540   -0.550926
H      6.848830    0.667192   -1.594829
H      7.353447   -1.084089   -1.562584
H     -6.952165   -2.963366   -0.755688
H     -7.268183   -1.622494    0.522710
H     -7.233046   -1.315618   -2.406162
H     -6.980209    0.050583   -1.202449
H     -1.688990    1.271812    2.378737
H     -1.111080    2.373776    0.996242
H     -0.990747   -0.666061    1.112872
H     -4.581298   -2.571361    0.020775
H     -4.895391   -1.922892   -2.408487
H     -3.408528    1.951800    0.087627
H     -1.627364    1.006654   -1.410334
H     -5.627940    0.316459    0.531647
H     -4.385100    0.839441   -1.582165
H     -3.104385   -0.777657    1.559899
H     -2.691379   -1.646361   -0.755402
H      9.444187    0.958271    0.885904
