52

C     -1.338613    0.601556   -4.879189
C      4.882500    0.197064   -0.138140
C      6.184232    0.821802    0.248025
C     -4.096032    0.581590   -1.759882
C     -3.096785    0.578538   -2.730935
C     -4.561419    1.465920    1.688935
C     -5.638740   -0.549255    0.757214
C     -5.710728    1.158969    2.632544
C     -5.772739   -1.097258    2.142929
C      6.025147   -1.239722    1.374181
C      3.593926   -1.173436    1.514882
C      4.756571   -1.115239    0.562127
C      7.038550   -0.336989    0.662461
C     -3.659985    0.468090   -0.446321
C     -1.762548    0.473840   -2.469047
C      2.293237   -0.947487    0.820390
C     -1.323912    0.359270   -1.141537
C     -2.297367    0.361580   -0.185269
C      0.289789    0.153484    0.401332
N      1.512900    0.026103    1.127932
N     -0.094462    0.249612   -0.695967
N     -4.602927    0.459702    0.644598
O      8.040277    0.061934    1.564806
O      1.935737   -1.823490   -0.181165
O     -0.888896    0.485880   -3.545846
O     -5.582716   -0.135581    3.129067
S     -1.358017    0.203451    1.306644
H     -1.787752   -0.360040   -5.248248
H     -2.050513    1.449484   -5.013164
H     -0.447409    0.821306   -5.521903
H      4.072355    0.911660    0.114131
H      4.863400    0.095469   -1.245155
H      6.011737    1.525805    1.100129
H      6.614672    1.408610   -0.582849
H     -5.132529    0.663352   -1.970022
H     -3.476574    0.670030   -3.760868
H     -3.630537    1.398104    2.286023
H     -4.709208    2.465059    1.241672
H     -6.585292   -0.074209    0.392057
H     -5.384202   -1.397480    0.083972
H     -5.728211    1.845738    3.508991
H     -6.644631    1.248530    2.038776
H     -5.054240   -1.911397    2.291434
H     -6.841318   -1.438202    2.256054
H      5.907083   -0.850050    2.409096
H      6.379034   -2.289086    1.358414
H      3.555770   -2.203380    1.926387
H      3.697231   -0.482942    2.356375
H      4.663162   -1.923213   -0.183549
H      7.467987   -0.829836   -0.226643
H      8.506543    0.839455    1.141675
H      0.966463   -1.872698   -0.493934
