44

C     -0.702767   -1.420401    1.827958
C      4.019958    0.471132    0.151005
C      4.746773   -1.807348    0.270624
C     -1.941300    3.857169    0.096362
C     -1.046928    4.535954   -0.686037
C     -3.607121   -2.199719   -1.475888
C     -2.483472   -1.745979   -0.781377
C     -1.766366    2.534793    0.392499
C      0.029532    3.855149   -1.167438
C      1.294249   -1.398825   -0.454684
C     -4.861715   -1.741413   -1.145773
C      2.724416   -1.371493   -0.922799
C     -3.861356   -0.409516    0.536398
C     -1.360240   -0.402098    0.980868
C     -2.558807   -0.835684    0.250670
C     -0.673692    1.779256   -0.077022
C      0.183909    2.481586   -0.843624
C      0.687772   -0.127490   -0.382236
C     -0.408305    0.456801    0.150695
N     -4.932600   -0.858207   -0.145357
N      3.737587   -0.832453   -0.177820
S      1.422916    1.343130   -1.301154
H      0.215735   -1.126499    2.312087
H     -1.379661   -1.666993    2.740379
H     -0.723348   -2.393741    1.301224
H      4.244346    1.096328   -0.764358
H      3.364722    1.055917    0.800301
H      5.076985    0.465389    0.644084
H      5.651281   -1.263263    0.520087
H      4.353662   -2.453888    1.058895
H      4.947414   -2.428333   -0.640278
H     -2.836798    4.378701    0.505848
H     -1.197468    5.561498   -0.907033
H     -3.490112   -2.920948   -2.278450
H     -1.512240   -2.112932   -1.045485
H     -2.532162    2.092424    1.036038
H      0.798886    4.276386   -1.787750
H      0.790639   -2.133574   -1.121868
H      1.354101   -1.932238    0.527568
H     -5.758838   -2.064083   -1.655234
H      2.735928   -0.823062   -1.946265
H      3.035099   -2.404282   -1.262784
H     -3.986943    0.305750    1.351994
H     -1.793674    0.327100    1.770110
