74

C     -5.179008   -2.943952    1.984209
C      5.283003   -2.144529   -2.435881
C     -2.134821    3.962532   -1.057284
C      1.972340    3.704793    1.853840
C     -2.462858    3.658015   -2.360914
C      2.273210    3.103380    3.050348
C     -1.584105    2.998158   -0.241751
C      1.454987    2.943650    0.834979
C     -2.213791    2.375320   -2.777245
C      2.047181    1.749776    3.193944
C     -1.515223    0.408391    1.308688
C      1.416740    0.675538   -1.249205
C     -5.981111   -2.629420   -0.604395
C      6.233399   -2.027438    0.252110
C     -1.337165    1.695011   -0.687683
C      1.221557    1.585138    0.964163
C     -1.668917    1.400368   -1.988075
C      1.530059    0.971542    2.184547
C     -1.333012   -0.599913   -0.859286
C      1.329617   -0.690765    0.641567
C     -3.485995   -1.073327    1.786360
C      3.556713   -0.459374   -1.905888
C     -3.814819   -1.433199   -0.937648
C      3.955506   -1.128846    0.737420
C     -0.759480    0.517069    0.005481
C      0.685447    0.552296    0.055008
C     -2.860111   -0.079196    0.902261
C      2.793980    0.307450   -0.890224
C     -5.045099   -1.613900   -0.101948
C      5.172100   -1.082673   -0.115943
N     -1.353774    0.006704   -2.189544
N      1.230481   -0.420599    2.061015
N     -4.553192   -1.869001    1.239413
N      4.680170   -1.235727   -1.482877
N     -2.691843   -0.763563   -0.392580
N      2.724145   -0.592207    0.272522
O     -6.433694   -2.366347   -1.877186
O      6.650416   -1.831501    1.548008
O     -3.117146   -1.231498    2.964656
O      3.210347   -0.416364   -3.103180
O     -3.835843   -1.892897   -2.106692
O      4.024351   -1.646133    1.873180
S     -4.075608    1.241956    0.587161
S      3.856142    1.705253   -0.392352
S     -5.796247    0.066577   -0.025227
S      5.727978    0.671448   -0.025382
H     -6.220888   -2.626045    2.201662
H     -5.137537   -3.891692    1.405213
H     -4.663611   -3.036992    2.961288
H      5.938529   -1.534599   -3.117640
H      4.538896   -2.628267   -3.100403
H      5.855624   -2.946507   -1.946281
H     -2.327886    4.972019   -0.718633
H      2.128593    4.775462    1.675134
H     -2.892982    4.415818   -2.995354
H      2.681168    3.729136    3.840494
H     -1.366726    3.324683    0.770754
H      1.218246    3.395755   -0.133508
H     -2.473157    2.137289   -3.804820
H      2.298868    1.314465    4.155097
H     -1.641269    1.398875    1.800150
H     -1.108138   -0.283953    2.036207
H      1.301081    1.703790   -1.655628
H      1.058834   -0.014638   -2.029701
H     -5.530725   -3.626924   -0.604915
H     -6.843897   -2.688792    0.113339
H      7.125660   -1.839430   -0.401520
H      5.952433   -3.066797    0.090968
H     -0.831150   -1.546548   -0.792394
H      0.872717   -1.619812    0.324688
H     -1.185826   -0.432320   -3.089392
H      1.004698   -1.027354    2.865595
H     -6.788242   -1.438348   -1.909094
H      7.239682   -1.046268    1.566203
