52

C     -3.784811    1.993841   -0.653016
C      7.073209    0.690198   -1.975287
C     -5.506336   -0.471185   -0.047896
C      0.074775   -1.685280    1.069042
C     -4.775022   -1.507166   -0.871518
C     -0.896649   -0.554221    0.681755
C      1.944420    2.355015    1.685568
C     -4.516047    0.204021    0.843503
C      1.002070   -1.198203    2.154577
C      1.291279    1.216068    2.096785
C      3.056766    2.308369    0.898107
C      4.500548   -1.383982   -0.259609
C      3.377695   -1.333134    0.525115
C     -3.745122   -0.760801   -1.708721
C     -1.827365   -1.089209   -0.361882
C      4.667529    0.975504   -0.286292
C     -3.332897    0.764818    0.100811
C      1.762885   -0.036718    1.708834
C      3.532157    1.061159    0.508896
C      5.167303   -0.231815   -0.680865
C      2.900293   -0.098241    0.904287
N     -2.777808   -0.151772   -0.838118
O      6.284067   -0.327034   -1.464048
H     -3.033640    2.248735   -1.460133
H     -3.841721    2.879429    0.008096
H     -4.772240    1.805937   -1.110464
H      8.118565    0.555397   -1.565394
H      6.783709    1.710958   -1.730068
H      7.210591    0.632504   -3.084490
H     -5.992154    0.231100   -0.775443
H     -6.273466   -0.941631    0.613128
H     -0.478987   -2.563304    1.424609
H      0.659444   -1.947152    0.179383
H     -5.467735   -2.080978   -1.521534
H     -4.248422   -2.152878   -0.146880
H     -1.501632   -0.389647    1.617260
H     -0.330252    0.322380    0.371303
H      1.576793    3.340987    1.986921
H     -5.020636    1.035316    1.371988
H     -4.209677   -0.521780    1.630279
H      0.347150   -0.897921    3.004763
H      1.630595   -2.018139    2.559301
H      0.395195    1.305436    2.730760
H      3.596570    3.175158    0.554819
H      4.886798   -2.350755   -0.566914
H      2.856757   -2.211065    0.872495
H     -3.227366   -1.509931   -2.335177
H     -4.257744   -0.004960   -2.352341
H     -1.173115   -1.353399   -1.249661
H     -2.250138   -2.053044   -0.041370
H      5.131147    1.918884   -0.572638
H     -2.587330    1.094133    0.842944
