42

C     -5.554384    0.992544    0.082459
C     -5.146525   -0.311114    0.576351
C      4.556424    0.570362    0.820833
C      4.336209   -1.220665   -0.687848
C      5.865935    0.747576    0.439462
C      5.635267   -1.060856   -1.080498
C     -2.638937    0.929364   -0.704653
C      2.366090   -0.558899    0.712339
C     -3.402618    0.413216   -1.871251
C      1.430059    0.278070   -0.116149
C     -1.909957    0.363143    1.663538
C     -3.803417   -2.128414    1.283218
C      3.760860   -0.414993    0.268671
C     -3.922239   -0.732576    0.748237
C     -2.694049   -0.015514    0.415910
C      6.416423   -0.070418   -0.517886
C     -0.459150    0.508779    1.433236
O     -3.892658   -0.691207   -1.947135
O     -4.784484   -2.819100    1.539188
O      7.746077    0.067318   -0.942561
O      0.260716    0.924700    2.347443
O      0.101067    0.193773    0.236195
H     -4.907781    1.843511    0.268124
H     -6.492527    1.285812    0.693749
H     -6.005097    0.983567   -0.955591
H     -5.982017   -1.002740    0.822665
H      4.197315    1.261947    1.586843
H      3.702844   -1.990330   -1.114168
H      6.486584    1.514916    0.869628
H      6.080107   -1.695970   -1.830935
H     -1.558039    0.967424   -1.128650
H     -2.806120    2.002320   -0.489358
H      2.318789   -0.171985    1.750732
H      2.110976   -1.642991    0.640878
H     -3.530900    1.076685   -2.720971
H      1.501909    0.021048   -1.213497
H      1.764302    1.336471   -0.042736
H     -2.029820   -0.400434    2.457568
H     -2.267215    1.374660    2.016704
H     -2.821061   -2.517474    1.440471
H     -2.004402   -0.888503    0.010609
H      7.975443    0.676979   -1.723747
