61

C      6.784364    0.379287    1.199702
C      2.011722   -1.503165   -1.252304
C     -4.204527   -2.996540    2.162935
C     -4.686574   -2.587978    0.942675
C     -2.895480   -2.727976    2.481086
C     -3.838223   -1.916164    0.066842
C     -2.043767   -2.051861    1.598231
C     -4.805998    4.737468   -0.738196
C     -3.975393    4.534376    0.352315
C      3.833174    0.805098   -0.857630
C      5.256386    1.156582   -0.490414
C     -4.164874    2.584323   -1.555856
C     -2.617867    0.099341   -1.173916
C     -1.644244    0.807739    0.729012
C      5.329715   -1.180802    0.133212
C     -1.407463   -1.972612   -1.650298
C     -2.589785    1.129167   -0.358835
C     -2.532951   -1.656985    0.402816
C     -4.894056    3.750476   -1.691966
C     -3.335698    2.365341   -0.480907
C     -3.245760    3.341420    0.467191
C      3.993429   -1.031480    0.819620
C      3.154440    0.054963    0.251403
C      0.652184    0.036407    0.168912
C     -1.693078   -0.938694   -0.648159
F     -5.701968    3.948223   -2.752201
F     -2.479695    3.262213    1.578918
F      3.393635   -2.275138    0.839101
N      6.030533    0.067843    0.003196
N      1.860395   -0.476050   -0.287554
N     -0.694708   -0.167100   -0.020188
O     -0.693997   -3.028991   -1.149586
O      0.889977    1.023518    1.053439
H      7.861849    0.206175    0.992311
H      6.519353   -0.315799    2.030767
H      6.668658    1.409509    1.545210
H      1.288446   -1.362043   -2.071009
H      3.048936   -1.536327   -1.696078
H      1.863370   -2.527444   -0.837589
H     -4.871511   -3.527110    2.856678
H     -5.709165   -2.798297    0.695210
H     -2.488711   -3.029735    3.417224
H     -4.254555   -1.613111   -0.878915
H     -1.012290   -1.841507    1.851644
H     -5.385737    5.645455   -0.862574
H     -3.914226    5.310610    1.090363
H      3.306603    1.795502   -0.977093
H      3.867535    0.289424   -1.820053
H      5.312380    2.050926    0.180712
H      5.744220    1.496480   -1.451111
H     -4.247309    1.812996   -2.322157
H     -3.191784   -0.019397   -2.074544
H     -2.044336    0.320655    1.595536
H     -1.036423    1.713133    0.902495
H      5.284216   -1.667285   -0.841431
H      5.949196   -1.841550    0.787136
H     -2.413109   -2.411793   -1.955181
H     -1.010932   -1.587637   -2.617339
H      4.233240   -0.780801    1.887632
H      2.867460    0.836942    1.007837
H     -1.279221   -3.600218   -0.578275
