42

C     -1.800081   -0.201764   -2.287339
C     -1.312292   -2.572868   -2.495673
C      3.078129    3.788467    0.345166
C      1.653125    2.725774    1.870504
C     -1.031087   -1.444372    2.092674
C      2.028180    0.501494   -1.161724
C     -2.658163   -2.225919    0.037013
C      2.434311    3.812378    1.563443
C     -0.670298   -1.220851    0.783378
C      2.189853    1.669642   -0.233436
C     -1.469109   -1.603326   -0.268566
C      2.971492    2.742457   -0.555437
C     -2.218915   -2.066353    2.395289
C     -3.031657   -2.456458    1.357261
C      1.528705    1.656427    0.978273
C      0.639732   -0.061107   -0.888017
C      0.633889   -0.541802    0.534331
C     -1.033451   -1.339714   -1.662922
O      2.588691    4.906552    2.425856
O      3.631898    2.752149   -1.768301
O     -2.604674   -2.302820    3.693594
O     -4.223837   -3.080121    1.638164
O      0.712251    0.589630    1.371895
O      0.338579   -1.108982   -1.737102
H     -2.000375    0.630245   -1.590194
H     -2.801657   -0.580947   -2.640797
H     -1.279866    0.188127   -3.184944
H     -1.166922   -3.441117   -1.827853
H     -2.336645   -2.517432   -2.904317
H     -0.612722   -2.560306   -3.342425
H      3.721295    4.623506    0.029201
H      1.135028    2.711058    2.817376
H     -0.378215   -1.130039    2.893841
H      2.088127    0.790481   -2.210060
H      2.766877   -0.270910   -0.862332
H     -3.324252   -2.548349   -0.729505
H     -0.066762    0.785960   -0.962516
H      1.477122   -1.229613    0.746892
H      3.342974    4.862626    3.085496
H      3.627016    2.067296   -2.474037
H     -2.043002   -2.036185    4.487538
H     -4.523290   -3.262914    2.581640
