42

C     -1.902459    0.128050    2.506193
C     -2.589628   -2.109453    1.753027
C      5.096200    0.471633   -0.277726
C      3.296061    1.568804   -1.408001
C     -1.733343    0.593970   -2.030173
C      1.845118   -0.983944    0.943597
C     -3.546950   -0.173760   -0.106571
C      4.645881    1.404949   -1.183980
C     -1.249348    0.053576   -0.831934
C      2.790527   -0.121630    0.166527
C     -2.171213   -0.321074    0.110276
C      4.143431   -0.299489    0.403520
C     -3.085280    0.731919   -2.227469
C     -4.015867    0.356016   -1.281934
C      2.360474    0.820203   -0.747222
C      0.457952   -0.380739    0.862300
C      0.180791   -0.108200   -0.595412
C     -1.723963   -0.892995    1.394140
O      5.550535    2.210173   -1.899796
O      4.602906   -1.228775    1.305217
O     -3.544491    1.275342   -3.434852
O     -5.357803    0.531680   -1.566889
O      0.981195    0.990018   -0.979424
O     -0.428593   -1.322439    1.378406
H     -1.045344    0.130589    3.212707
H     -2.807280   -0.077580    3.115448
H     -2.018937    1.161674    2.105605
H     -3.596076   -1.808151    2.081562
H     -2.560101   -2.801123    0.911991
H     -2.078102   -2.574682    2.636935
H      6.154257    0.336769   -0.096191
H      2.953412    2.309118   -2.126225
H     -1.003904    0.886142   -2.765636
H      2.118319   -1.020129    2.025930
H      1.780302   -2.003657    0.510916
H     -4.260804   -0.479198    0.657988
H      0.429788    0.577081    1.449836
H      0.545824   -0.993675   -1.168312
H      5.854424    3.119347   -1.522328
H      3.958494   -1.810535    1.817029
H     -2.924214    1.567982   -4.161769
H     -6.102189    0.286193   -0.937306
