85

C      5.389049   -3.762277   -1.447832
C     -3.310114    2.024127   -1.792349
C      7.375082    2.785982   -1.457320
C     -7.790891    0.264144   -2.096334
C     -0.721526   -1.851145   -0.683527
C      5.692247    1.334146    2.181182
C     -6.009049   -1.452645    1.930415
C      0.802569   -1.674343   -0.566092
C     -1.424447   -0.509625   -0.741809
C      4.385942    1.096852    1.422408
C     -4.769154   -1.134190    1.110213
C      6.718489    1.692790    1.120475
C     -7.148272   -0.548314    1.629682
C      3.760795   -2.367099   -0.130660
C     -3.672725    2.453688    0.607261
C      5.851339   -1.337859   -0.990778
C     -5.556259    1.824736   -0.830003
C      2.280425   -0.849988    1.256763
C     -2.268460    0.413996    1.413921
C      5.218799   -2.627211   -0.472150
C     -4.246716    2.600960   -0.759889
C      6.803689    1.415204   -1.358667
C     -7.754860   -0.222402   -0.715532
C      3.580094   -1.088573    0.586817
C     -3.503015    1.018132    0.949334
C      1.113127   -0.547115    0.372417
C     -1.114520    0.320491    0.489726
C      4.534378   -0.199675    0.713567
C     -4.604910    0.284438    0.850121
C      5.926053   -0.417505    0.166968
C     -5.832130    1.074636    0.408095
N     -0.051024   -0.380464    1.235136
N      6.480559    0.880360   -0.087890
N     -6.905975    0.153204    0.313557
O      6.641013    0.806902   -2.433434
O     -8.647469   -1.124002   -0.448736
H      4.839242   -3.588451   -2.397189
H      5.085399   -4.694907   -0.951133
H      6.463271   -3.844955   -1.673631
H     -2.258606    2.166005   -1.473605
H     -3.391448    2.569223   -2.770817
H     -3.555682    0.968003   -2.037367
H      6.612318    3.578050   -1.370784
H      8.131226    2.854312   -0.622189
H      7.926833    2.933062   -2.391490
H     -6.999037   -0.271888   -2.699858
H     -8.742626   -0.112299   -2.626850
H     -7.807993    1.342519   -2.229072
H     -1.116662   -2.411624    0.181382
H     -0.900750   -2.368490   -1.625395
H      5.603184    2.090849    2.957003
H      5.990602    0.352088    2.600067
H     -5.721908   -1.482514    3.014392
H     -6.300664   -2.496839    1.670524
H      1.145335   -2.634738   -0.139031
H      1.224674   -1.409284   -1.545848
H     -2.512270   -0.738935   -0.709927
H     -1.222216    0.009238   -1.680372
H      3.517269    1.245819    2.028198
H      4.381388    1.905269    0.629289
H     -4.872259   -1.635921    0.096719
H     -3.957307   -1.678897    1.598713
H      7.747417    1.440013    1.450657
H      6.687996    2.770220    0.894030
H     -7.178751    0.269309    2.373542
H     -8.141614   -1.009158    1.628329
H      3.240018   -2.429321   -1.106876
H      3.364193   -3.177892    0.508246
H     -2.744123    3.038949    0.741573
H     -4.398868    2.935895    1.326968
H      6.856911   -1.620460   -1.360886
H      5.205186   -0.892804   -1.779150
H     -5.531118    1.211609   -1.736032
H     -6.346567    2.596777   -0.947276
H      2.330077   -0.194280    2.149534
H      1.958336   -1.852719    1.765250
H     -2.446719   -0.588866    1.822977
H     -1.967085    1.015458    2.344175
H      5.739990   -2.893456    0.462130
H     -4.434170    3.692954   -0.964583
H      1.281505    0.415733   -0.178300
H     -0.682473    1.262384    0.159278
H      6.552723   -0.928369    0.948145
H     -6.051200    1.763971    1.286789
H      0.174890    0.179004    2.086707
