26

C      0.829821   -1.378672   -0.614293
C     -2.172379   -0.610019    0.250074
C     -1.113881    0.065317   -0.609187
C      1.600181   -0.321003    0.119484
C     -0.345350    1.099644    0.146179
C      1.104673    1.017514   -0.351089
N     -0.338596   -0.908031   -1.279497
O     -2.949677    0.356219    0.922472
O      2.970110   -0.458204    0.016260
O     -0.288775    0.843499    1.515390
O      1.860019    2.079891    0.057177
Cl     0.686940    0.000000    0.000000
H      1.524048   -1.780199   -1.403939
H      0.637024   -2.256573    0.056357
H     -1.742680   -1.315968    0.976927
H     -2.891148   -1.170004   -0.382648
H     -1.700393    0.627080   -1.397975
H      1.300868   -0.401596    1.204965
H     -0.686181    2.129221   -0.034796
H      1.018215    0.955283   -1.474637
H     -0.954729   -1.752146   -1.470476
H     -3.283187   -0.113211    1.739393
H      3.328194   -0.906550    0.838688
H      0.422047    1.452184    1.876688
H      1.871777    2.746323   -0.701517
H     -0.686940    0.000000    0.000000
