59

C     -8.769743   -0.430367   -1.056864
C     -7.366818   -1.017260   -1.083915
C     -6.768436   -0.802406    0.277573
C     -5.354430   -1.354146    0.366130
C     -4.761754   -1.140278    1.716358
C     -4.664987    0.301873    2.120776
C      7.092735   -0.450362    0.119706
C      8.367999   -0.352882   -0.401651
C     -3.831591    1.135968    1.213591
C      6.386027   -1.749783   -1.720378
C      1.753457   -0.129722   -1.185985
C      4.699352   -1.243222    0.054945
C      6.077107   -1.139058   -0.509687
C      0.591119    0.756936   -0.875358
C      8.661841   -0.959577   -1.597368
C      7.657459   -1.655976   -2.245993
C      2.661357   -0.143616    0.012185
C      0.977875    1.583314    0.288051
C      3.330824    2.213280    0.181451
C     -1.518596    1.229860    0.398673
C     -0.147728    0.646135    0.406542
C      2.383252    1.191134    0.683746
Cl    10.275795   -0.857723   -2.294299
Cl     8.011967   -2.440025   -3.777602
F      0.055639   -0.467308    1.196376
N      2.529408    1.085860    2.108272
O      4.085460    2.817279    0.979986
O      3.393808    2.510365   -1.159690
O     -1.795166    2.243828   -0.290792
O     -2.503813    0.632014    1.173851
O      3.988101   -0.156377   -0.452312
H     -8.743030    0.680401   -1.113559
H     -9.326334   -0.705799   -0.159156
H     -9.323102   -0.816188   -1.949295
H     -6.749822   -0.414221   -1.804698
H     -7.463924   -2.064753   -1.364430
H     -6.774610    0.274862    0.521132
H     -7.430966   -1.307964    1.009110
H     -5.467866   -2.468407    0.237565
H     -4.727268   -1.024153   -0.470025
H     -3.809505   -1.681509    1.796339
H     -5.451965   -1.630798    2.458774
H     -5.673042    0.739316    2.265537
H     -4.185241    0.319972    3.132457
H      6.907038    0.042507    1.062488
H      9.123415    0.194486    0.126733
H     -3.755802    2.152480    1.662549
H     -4.230701    1.263445    0.205253
H      5.625466   -2.315456   -2.277134
H      1.421166   -1.180401   -1.394311
H      2.303851    0.295344   -2.054368
H      4.789136   -1.217518    1.156338
H      4.275672   -2.207751   -0.241323
H      0.091788    1.192283   -1.757952
H      2.471347   -1.000628    0.680175
H      0.739734    2.656519    0.278853
H      2.382474    0.095222    2.464295
H      3.474424    1.445017    2.396450
H      4.010148    3.233658   -1.514112
