37

C     -2.583951   -0.430038   -1.500680
C      5.306796    1.604046   -0.051073
C      1.649782    0.967456    0.063186
C      3.420714   -0.466400   -0.494799
C     -1.102765    1.307992    0.550094
C     -2.601595   -1.011100    0.952929
C      3.007299    0.770575   -0.104155
C      0.731257   -0.056030   -0.157197
C     -0.697631    0.155871    0.031867
C     -2.590534    1.480321    0.724068
C      2.502382   -1.525474   -0.726065
C     -3.181281    0.284544    1.389379
C      1.150061   -1.330453   -0.560000
C      0.153211   -2.360480   -0.796350
C     -1.747879   -0.846898   -0.311521
O     -2.733368    2.639297    1.530375
O      2.996334   -2.729065   -1.113529
O     -4.573620    0.242671    1.238005
O      0.527813   -3.525853   -1.163128
O      3.916458    1.823281    0.125667
O     -1.201524   -2.103014   -0.631167
H     -3.638811   -0.358843   -1.161411
H     -2.202599    0.460154   -2.019233
H     -2.609214   -1.225426   -2.305577
H      5.705661    0.858029    0.682400
H      5.395770    1.086337   -1.051640
H      5.883886    2.527083   -0.056733
H      1.359629    1.950371    0.364586
H      4.472815   -0.684217   -0.642855
H     -0.423764    2.070679    0.833680
H     -1.890782   -1.391791    1.727425
H     -3.363596   -1.793415    0.820835
H     -3.085575    1.766312   -0.229521
H     -3.019851    0.418007    2.499813
H     -2.648006    3.459385    0.978530
H      2.596933   -3.569973   -1.323133
H     -4.880454   -0.463939    1.886927
