34

C      3.279323   -1.839286    0.975879
C     -2.595424   -0.800141    0.628058
C     -2.451202    0.347625    1.571793
C      0.400816    2.128291   -1.630621
C      0.891192    0.833190   -2.230050
C     -1.186522   -1.223880    0.192078
C     -1.537116    1.426982    1.118920
C      0.353655    2.100969   -0.124390
C      2.109417   -1.717183    0.051967
C      0.639087   -0.343222   -1.304986
C     -0.641767   -0.038618   -0.575912
N      1.726409   -0.598505   -0.423624
N     -0.387224    0.989330    0.403602
O      1.414096   -2.875087   -0.299770
H      3.184242   -2.747774    1.618732
H      4.179743   -1.961240    0.352814
H      3.318767   -0.968335    1.649917
H     -3.013143   -1.677127    1.169564
H     -3.180493   -0.540513   -0.281646
H     -3.457857    0.787285    1.733874
H     -2.153275   -0.083716    2.569322
H      1.073119    2.959949   -1.925261
H     -0.611618    2.389816   -1.993942
H      1.970593    0.897642   -2.489353
H      0.345615    0.681719   -3.186025
H     -0.612550   -1.354204    1.132356
H     -1.227986   -2.140760   -0.426691
H     -2.090982    2.221649    0.554896
H     -1.168314    1.958378    2.045124
H     -0.086134    3.059795    0.203594
H      1.385980    2.040977    0.286139
H      0.476653   -1.217655   -1.961610
H     -1.373264    0.319805   -1.332587
H      1.026165   -3.016153   -1.206783
