34

C      3.848510    1.661158    0.242531
C     -1.428726    2.088769    0.350084
C     -2.701144    1.335063    0.391637
C     -0.308422   -2.867530   -0.013289
C      0.862460   -2.070865    0.454507
C     -0.248700    1.217145    0.801999
C     -2.614741   -0.128977    0.546531
C     -1.475623   -1.998481   -0.462911
C      2.750785    0.870465   -0.362405
C      0.956214   -0.724653   -0.243906
C     -0.319293    0.034927   -0.177094
N      2.024132    0.052534    0.315492
N     -1.400643   -0.768631    0.260592
O      2.510089    1.030879   -1.717125
H      3.410487    2.607751    0.618763
H      4.317982    1.111205    1.086367
H      4.649877    1.895089   -0.486028
H     -1.186079    2.383070   -0.691969
H     -1.433336    3.014648    0.973528
H     -3.329138    1.786365    1.218120
H     -3.285945    1.586698   -0.538778
H     -0.037930   -3.509851   -0.871253
H     -0.646408   -3.583257    0.792499
H      1.798255   -2.624241    0.150990
H      0.891351   -1.973367    1.546006
H     -0.472640    0.828731    1.830496
H      0.694001    1.752956    0.739146
H     -3.424808   -0.614984   -0.075546
H     -2.913127   -0.394352    1.605709
H     -1.332161   -1.794972   -1.558374
H     -2.448394   -2.530731   -0.288744
H      1.262259   -0.966399   -1.304025
H     -0.569287    0.425057   -1.202622
H      1.600144    0.868780   -2.128128
