54

C      0.644216    3.859591    0.160233
C     -4.079309    0.490661   -0.384262
C     -3.475680   -1.094121    1.320737
C     -0.484217   -1.617960    1.290891
C     -1.890767   -1.500452   -1.886288
C     -1.308607    2.499180    0.524376
C     -1.785535    1.168169    1.127931
C     -3.095699   -1.647221   -1.005364
C     -0.582708   -1.573254   -1.128065
C      2.448873   -1.672531   -0.408320
C      5.273779    1.436306    0.079563
C      0.127551    2.540896    0.771979
C      2.016147   -0.420894   -0.081240
C      4.293431    0.373089   -0.085962
C      3.816229   -1.924106   -0.581008
C     -1.717326    0.174651    0.034657
C      0.743149    0.099686    0.146245
C      4.728294   -0.904554   -0.419835
C      0.961715    1.414096    0.436141
C      2.947771    0.612652    0.082143
C     -3.008983   -0.555330   -0.006201
C     -0.459201   -0.691778    0.056667
O      6.494330    1.203454   -0.076851
O      4.158899   -3.224765   -0.912343
O      6.088277   -1.158388   -0.592635
O      2.279223    1.669460    0.385340
H      0.603843    3.725314   -0.943154
H      1.645250    4.084840    0.530973
H     -0.040254    4.646183    0.492598
H     -4.827614    0.047056   -1.065778
H     -3.619704    1.344820   -0.923105
H     -4.593549    0.883914    0.489528
H     -3.256352   -0.457345    2.178186
H     -3.097099   -2.111686    1.549072
H     -4.601150   -1.213873    1.331480
H     -0.826096   -2.638256    1.022399
H      0.588203   -1.785054    1.623874
H     -0.973526   -1.164429    2.142508
H     -1.965605   -2.316337   -2.646188
H     -2.024798   -0.564427   -2.459576
H     -1.802484    3.350951    1.008495
H     -1.575908    2.545023   -0.552234
H     -1.194399    0.917181    2.028838
H     -2.838923    1.378993    1.402909
H     -3.985715   -1.498384   -1.648407
H     -3.215183   -2.659702   -0.579348
H      0.175105   -1.271592   -1.870317
H     -0.566478   -2.619639   -0.807563
H      1.724615   -2.454918   -0.522249
H      4.953337    2.430171    0.337845
H      0.270970    2.725396    1.884446
H     -1.613897    0.707429   -0.961623
H      5.092455   -3.519930   -1.058974
H      6.431104   -2.068234   -0.833163
