59

C      7.673017    0.751543    1.016553
C      7.895102    0.821901   -0.477860
C      7.314445   -0.403646   -1.170632
C      5.804553   -0.422675   -0.861146
C      5.147673   -1.596289   -1.503057
C      3.672287   -1.623317   -1.238143
C     -5.817840    1.704887   -1.706398
C     -6.707872    1.053962   -2.562278
C      3.397278   -1.707273    0.215363
C     -6.617643    0.444069    0.118474
C     -2.736496   -0.452668   -0.343678
C     -4.810659    2.123045    0.508280
C     -5.762134    1.409284   -0.362288
C     -1.272367   -0.176276   -0.309298
C     -7.548039    0.093009   -2.040707
C     -7.512970   -0.221358   -0.702038
C     -3.334969    0.371577    0.797595
C     -1.001383    0.382040    1.097869
C     -2.402752    1.123324    2.980628
C      1.114832   -0.782746    0.210191
C     -0.337480   -0.881130    0.570076
C     -2.281741    0.178679    1.868143
Cl    -8.671978   -0.737838   -3.087989
Cl    -8.581347   -1.442547   -0.041859
F     -0.677464   -2.023124    1.246157
N     -2.409774   -1.182695    2.355568
O     -2.324869    2.364876    2.805166
O     -2.610585    0.685685    4.289243
O      1.535175    0.225913   -0.412395
O      2.020704   -1.759150    0.534593
O     -3.514657    1.682321    0.448244
H      8.594662    1.096297    1.564002
H      6.815705    1.407541    1.277453
H      7.430380   -0.280414    1.356139
H      8.985576    0.878846   -0.647627
H      7.373804    1.729360   -0.884208
H      7.797156   -1.294213   -0.730042
H      7.513361   -0.381405   -2.240607
H      5.722851   -0.545131    0.259028
H      5.362479    0.533043   -1.144752
H      5.624812   -2.536866   -1.124992
H      5.345272   -1.493386   -2.613520
H      3.289340   -2.539026   -1.781672
H      3.258361   -0.699348   -1.712710
H     -5.186136    2.446488   -2.171737
H     -6.759160    1.279163   -3.619615
H      3.837916   -0.806238    0.723732
H      3.894309   -2.599782    0.634521
H     -6.633572    0.160950    1.160017
H     -3.014862   -1.506605   -0.284913
H     -3.168084   -0.038374   -1.284114
H     -5.185766    2.034007    1.558109
H     -4.797435    3.226915    0.291285
H     -0.848735    0.434524   -1.146051
H     -4.268593   -0.119975    1.073033
H     -0.428924    1.306767    1.184877
H     -2.901350   -1.136759    3.275965
H     -3.053518   -1.760576    1.738861
H     -3.239897    1.200812    4.922907
