44

C      4.629919    0.653466    0.520515
C     -2.512556   -2.968826    0.670246
C     -1.349197    2.538147   -1.446131
C     -1.268565    2.856122    0.026306
C     -1.505647    1.071373   -1.663115
C      3.376259   -1.037603   -0.764791
C      2.177998   -1.602816   -1.193988
C     -0.079420    2.108919    0.593568
C     -0.616739   -0.003565    1.852485
C     -1.750623   -0.989643    1.772981
C      2.125084    0.583496    0.468377
C     -0.266553   -1.737933   -1.292233
C      3.324551    0.058413    0.068604
C      0.961229   -1.097775   -0.809421
C     -1.459392    0.276675   -0.398260
C      0.942189   -0.004962    0.021382
C     -1.509557   -1.203258   -0.622565
C     -0.310306    0.608562    0.488484
N     -1.633897   -1.850631    0.647730
H      4.459553    1.699907    0.890321
H      5.373160    0.661165   -0.292852
H      5.055502    0.080107    1.355163
H     -1.937976   -3.872711    0.963797
H     -2.979787   -3.193804   -0.310421
H     -3.336882   -2.868545    1.421002
H     -2.230556    3.126483   -1.836877
H     -0.474737    2.952214   -1.989521
H     -2.175670    2.519808    0.541967
H     -1.057836    3.939657    0.200995
H     -2.484035    0.891596   -2.159479
H     -0.737522    0.701525   -2.396162
H      4.325690   -1.438542   -1.070109
H      2.235542   -2.472515   -1.855272
H      0.119440    2.347044    1.643927
H      0.796401    2.439387   -0.013407
H      0.261420   -0.468363    2.312738
H     -0.944699    0.834414    2.503367
H     -1.652513   -1.643180    2.690155
H     -2.750750   -0.509903    1.888964
H      2.154664    1.440718    1.121548
H     -0.330772   -1.687094   -2.400063
H     -0.170161   -2.840398   -1.064339
H     -2.401669    0.531167    0.171965
H     -2.390583   -1.428297   -1.257582
