25

C      1.257039    0.653568   -1.212697
C      2.534428    1.161775   -1.087663
C      1.453611   -0.368548    0.902202
C     -1.192877   -1.977013   -0.195680
C     -2.482629    0.023347    0.971312
C     -1.628643    0.376267   -1.109994
C      0.686206   -0.133368   -0.202547
C     -1.442446   -1.015764    0.901376
C      3.295812    0.916217    0.032047
C      2.758427    0.149502    1.037509
C     -0.692000   -0.601866   -0.378615
Cl     4.921725    1.590436    0.190110
Cl     3.681443   -0.160125    2.493704
N     -2.863657    0.387138   -0.391626
H      0.626918    0.837003   -2.086812
H      2.944475    1.762399   -1.875874
H      1.072910   -0.965232    1.710976
H     -1.999528   -2.319995   -0.883774
H     -0.483484   -2.794394    0.038896
H     -3.377036   -0.199676    1.560056
H     -2.066493    1.005670    1.393121
H     -1.147029    1.396793   -1.098522
H     -1.714853    0.094402   -2.169400
H     -0.860808   -1.155733    1.832064
H     -3.281513    1.337195   -0.370167
