54

C      1.126020    2.818677    2.634578
C     -3.966675   -0.434683    1.043285
C     -3.809395    0.461581   -1.194868
C     -0.650503   -0.452941   -1.795523
C     -1.708948   -2.518439   -0.352373
C     -1.037062    2.282961    1.554681
C     -1.699702    1.789915    0.250537
C     -2.876521   -1.712027   -0.730109
C     -0.630306   -1.774702    0.341462
C      2.212657   -1.548367   -1.070768
C      5.321168    0.993206    0.261689
C      0.369962    2.545644    1.310475
C      1.937084   -0.385886   -0.396984
C      4.280838    0.081768   -0.218728
C      3.513503   -1.915735   -1.328194
C     -1.747709    0.300452    0.259570
C      0.752515    0.278938    0.024660
C      4.551652   -1.084473   -0.892794
C      1.090667    1.435670    0.664501
C      2.940126    0.443522    0.036908
C     -3.031444   -0.338595   -0.181994
C     -0.535116   -0.392604   -0.298051
O      5.017804    2.048105    0.873563
O      3.879578   -3.065966   -1.997253
O      5.874416   -1.456692   -1.153174
O      2.445214    1.472331    0.637000
H      0.559415    3.677170    3.100272
H      1.073380    1.906241    3.243285
H      2.150583    3.118443    2.385006
H     -3.873037   -1.451925    1.507579
H     -5.010714   -0.299519    0.766311
H     -3.701106    0.367068    1.768936
H     -3.330258    1.424310   -1.475269
H     -4.877664    0.600410   -0.913476
H     -3.853193   -0.117372   -2.138931
H     -1.491082    0.118961   -2.219447
H      0.262941    0.050527   -2.234410
H     -0.681039   -1.444265   -2.236377
H     -1.983681   -3.381361    0.340150
H     -1.329738   -3.080926   -1.259659
H     -1.149131    1.435072    2.281662
H     -1.563029    3.183668    1.942393
H     -1.125750    2.221560   -0.581939
H     -2.692854    2.252828    0.254989
H     -3.007468   -1.705063   -1.857395
H     -3.796557   -2.305128   -0.424154
H     -1.032381   -1.609808    1.405427
H      0.304599   -2.280433    0.518166
H      1.428017   -2.177107   -1.424452
H      6.346371    0.750016    0.085250
H      0.528333    3.513199    0.748379
H     -1.672597    0.047565    1.384239
H      3.216999   -3.738007   -2.355780
H      6.680816   -0.947780   -0.892851
