25

C      1.297669   -1.347600    0.095268
C      2.654125   -1.558805   -0.166164
C      1.560063    0.899355   -0.529953
C     -1.356399   -0.669073    1.265459
C     -2.881412    0.088265   -0.658410
C     -1.215952    1.541216    0.038727
C      0.737270   -0.123985   -0.082158
C     -1.764756   -0.800892   -0.154452
C      3.455045   -0.529693   -0.610884
C      2.901698    0.720508   -0.796424
C     -0.692007    0.143882    0.182045
Cl     5.164124   -0.746608   -0.951304
Cl     3.923229    2.031359   -1.362642
N     -2.656336    1.361780   -0.014080
H      0.708611   -2.177228    0.441794
H      3.116000   -2.524983   -0.030723
H      1.140613    1.871324   -0.677284
H     -2.073804   -0.189130    1.961492
H     -0.799873   -1.525413    1.678643
H     -3.858806   -0.330194   -0.345255
H     -2.863039    0.152466   -1.756487
H     -0.879210    2.033077   -0.895761
H     -0.956894    2.114285    0.929090
H     -1.589406   -1.755704   -0.679286
H     -3.070554    1.321793    0.929356
