49

C      6.507192   -1.570819   -0.267503
C      4.924569   -1.185278    1.678738
C      0.781899    1.087029    1.416890
C      2.764599   -0.800063   -0.025986
C      4.105453   -1.091745   -0.593207
C      2.330152    0.541165   -0.555043
C     -0.049915    1.181112   -0.830634
C     -3.370637   -1.643357    0.125719
C     -3.778382    1.087801   -0.177356
C     -2.391610    0.702566   -2.228699
C      5.137475   -1.276117    0.211156
C      0.990907    0.940976   -0.050547
C     -4.397149   -0.980836    0.984237
C     -4.018822    0.462153    1.187322
C     -2.230755   -0.763030   -0.229244
C     -1.390562    1.581878   -0.317119
C     -2.004369    2.128987   -2.391366
C     -2.467957    0.588900   -0.710366
O     -5.677217   -1.008505    0.394127
O     -2.879359    0.494644    1.980931
O     -1.105546   -1.199487   -0.107678
O     -1.899291    2.699071   -3.523647
O     -1.787591    2.700036   -1.130047
H      6.679760   -2.672261   -0.412616
H      7.229633   -1.156105    0.443871
H      6.720729   -1.112137   -1.253248
H      5.838883   -1.370107    2.255817
H      4.499112   -0.205926    1.952017
H      4.206587   -2.002692    1.965302
H      0.657903    2.166985    1.686065
H     -0.138625    0.573045    1.759309
H      1.624893    0.619215    1.968815
H      2.084864   -1.615994   -0.404801
H      2.773528   -0.864903    1.063526
H      4.274086   -1.160682   -1.660178
H      3.066226    1.288280   -0.182607
H      2.400959    0.531808   -1.640961
H      0.090169    1.078217   -1.897195
H     -3.024579   -2.597487    0.598142
H     -3.879613   -1.932631   -0.835995
H     -3.865164    2.184514   -0.164685
H     -4.582295    0.687790   -0.843060
H     -1.558367    0.059690   -2.554554
H     -3.354669    0.461489   -2.709609
H     -4.517837   -1.478805    1.985712
H     -4.814152    1.024930    1.733084
H     -1.390234    1.830967    0.738560
H     -6.168065   -0.178509    0.650761
H     -2.946816    1.164228    2.678598
