39

C     -1.593919    1.886595    0.226776
C     -2.328233    0.356938    1.961116
C      0.228601    0.541817   -1.733005
C     -2.427125   -0.756719   -1.620355
C      3.509059    0.483133   -0.288623
C     -2.872000   -0.182871   -0.343480
C     -1.123038   -1.474972   -1.633661
C      4.830972    0.709584    0.063883
C      0.614234   -0.018225    1.183784
C      4.012428   -0.778865    1.406994
C      2.971592   -0.463937    0.558233
C      1.612115   -0.999618    0.546429
C     -0.614240   -0.418845    0.440448
C     -1.797870    0.438281    0.518945
C     -0.067389   -0.686609   -0.930510
O      5.079902   -0.069589    1.082012
O      1.104846   -1.341114   -0.678812
H     -1.674837    2.173025   -0.823111
H     -0.667307    2.228935    0.731547
H     -2.422980    2.448928    0.754009
H     -1.517641   -0.011774    2.649070
H     -2.639543    1.330551    2.338726
H     -3.158296   -0.340932    2.054771
H     -0.594793    0.771026   -2.440514
H      1.101781    0.276339   -2.402910
H      0.573200    1.402724   -1.147007
H     -2.495968    0.040587   -2.411782
H     -3.208679   -1.508195   -1.946008
H      3.018767    0.987898   -1.101243
H     -3.614698    0.631799   -0.546211
H     -3.433827   -0.941514    0.248421
H     -0.802839   -1.572100   -2.712000
H     -1.206193   -2.466657   -1.182889
H      5.542643    1.379723   -0.381242
H      0.511922   -0.215998    2.275376
H      0.939381    1.006949    1.025995
H      3.995005   -1.487695    2.219786
H      1.524501   -1.923416    1.192074
H     -0.909538   -1.435189    0.844967
