40

C      0.695407    1.538227   -1.914437
C     -3.571285    0.144645   -0.667578
C      2.277634   -1.004947    1.784518
C      3.362539   -1.425618    1.027440
C     -0.788876   -0.312284   -1.470647
C     -1.556743   -1.167793   -0.499788
C      0.115933    0.070820    2.112374
C      2.328402   -0.495762   -0.878329
C     -0.495509    1.544388    0.190078
C     -2.266457    0.192025    1.358884
C     -0.941831    0.902499    1.462633
C      1.212655   -0.326917    1.210731
C      3.406927   -1.175401   -0.332128
C      1.253177   -0.080355   -0.120499
C      0.154765    0.635173   -0.791966
N     -2.551077   -0.401782    0.126145
O      4.483515   -1.585325   -1.120820
Br     0.760251    0.000000    0.000000
H      1.555148    2.125983   -1.585527
H      0.898879    0.928112   -2.828565
H     -0.180775    2.183410   -2.196750
H     -3.347382    1.118947   -1.143220
H     -3.822350   -0.559730   -1.490922
H     -4.530730    0.294781   -0.099772
H      2.305486   -1.232334    2.841058
H      4.175157   -1.948290    1.491731
H     -1.468671    0.219179   -2.141266
H     -0.173127   -1.005893   -2.094128
H     -0.880130   -1.598857    0.261241
H     -1.956432   -2.039626   -1.086989
H      0.590705    0.569375    2.997955
H     -0.396433   -0.838598    2.543043
H      2.391811   -0.313266   -1.951382
H     -1.322067    2.142527   -0.234488
H      0.286983    2.308188    0.484191
H     -2.244114   -0.614221    2.151696
H     -3.128375    0.839864    1.660183
H     -1.139056    1.764291    2.173533
H      5.266297   -0.931817   -1.228234
H     -0.760251    0.000000    0.000000
