53

C     -0.345612   -1.672786    2.077723
C      5.029310   -0.253329   -1.753352
C      3.567087   -0.459803   -1.341980
C     -2.228593   -2.915962   -0.598908
C     -3.688637   -2.910252   -0.572689
C      5.802499    0.477819   -0.678096
C     -1.498970    2.569157   -0.098465
C      2.182679   -0.729225    0.752284
C     -4.431582   -0.281299   -0.014254
C      2.599170    1.531842    0.479295
C      3.595746   -0.536452    0.168059
C     -2.824481   -2.048736    0.403129
C     -2.502629    1.631121   -0.054555
C     -4.797934    1.019295   -0.270298
C     -0.183067    2.217582    0.107034
C      3.902086    0.831152    0.679173
C     -2.185091    0.285371    0.207534
C      0.180294    0.900940    0.369288
C     -3.821843    1.989659   -0.291786
C     -0.844302   -0.009360    0.412852
C     -6.172049    1.426881   -0.521609
F      0.792169    3.174912    0.058701
N      4.965801    1.474388   -0.080807
N      1.525251    0.509530    0.530102
N     -3.133007   -0.650266    0.222498
O     -4.096721    3.196613   -0.521766
O     -7.043810    0.511611   -0.491067
O     -6.500161    2.740060   -0.778708
O     -0.471465   -1.321349    0.708663
H      0.418408   -2.505935    2.141659
H     -1.209613   -1.949228    2.630688
H      0.091119   -0.776986    2.628776
H      5.481961   -1.278910   -1.858481
H      5.060641    0.215201   -2.734549
H      2.958414    0.388618   -1.700671
H      3.259781   -1.434287   -1.726758
H     -1.645977   -2.476060   -1.436627
H     -1.725946   -3.839759   -0.204628
H     -4.246227   -3.757398   -0.184158
H     -4.183359   -2.402110   -1.411284
H      6.701870    0.903853   -1.162848
H      6.131521   -0.253556    0.062183
H     -1.767372    3.589668   -0.298380
H      2.398825   -0.987949    1.806624
H      1.755822   -1.544237    0.146769
H     -5.194072   -1.046899    0.002037
H      2.428988    2.226241    1.301885
H      2.616878    2.018011   -0.529002
H      4.288650   -1.289200    0.537092
H     -3.100792   -2.379024    1.450289
H      4.137123    0.781725    1.761146
H      5.459518    2.113944    0.576863
H     -7.488300    2.985163   -0.687260
