50

C      6.085203   -1.165345   -0.206692
C      4.801953    0.512835   -1.387587
C     -5.990785    1.635848    1.786102
C     -4.662685   -2.341683   -1.881040
C     -1.036196    2.107910    1.167409
C      0.095979    2.196540    0.142315
C      3.781602   -0.892873    0.449696
C     -3.351354    1.305663    0.960336
C     -2.671364   -0.638984   -0.838882
C      0.127741   -1.442491   -0.592816
C      1.979904    0.740423   -0.254222
C      4.671920   -0.829611   -0.722019
C     -2.035276    1.167609    0.571225
C      2.343240   -0.618189    0.271337
C     -1.667769    0.194637   -0.334604
C     -0.257852    0.006914   -0.785093
C      1.603579   -1.617431   -0.522103
C     -4.356737    0.480177    0.463376
C     -3.985206   -0.493902   -0.444233
N      0.567444    0.876866   -0.042306
O      2.085658   -2.561273   -1.117370
O     -5.685970    0.615516    0.852870
O     -4.979108   -1.322496   -0.946209
H      6.857314   -0.643174   -0.811362
H      6.169061   -0.720702    0.821819
H      6.227924   -2.243712   -0.132556
H      4.281863    0.457134   -2.379433
H      5.874432    0.727674   -1.682164
H      4.507487    1.366296   -0.777191
H     -5.677396    2.616745    1.340724
H     -5.358214    1.535139    2.713052
H     -7.057134    1.690309    2.027469
H     -4.429797   -1.917545   -2.875798
H     -5.494681   -3.080709   -1.941900
H     -3.800124   -2.906227   -1.454569
H     -0.654512    1.678266    2.129602
H     -1.460669    3.082619    1.399909
H     -0.415751    2.516187   -0.812637
H      0.867198    2.902309    0.438286
H      4.175429   -0.208890    1.230742
H      3.872320   -1.914996    0.890104
H     -3.684715    2.057787    1.670765
H     -2.415348   -1.411702   -1.550909
H     -0.291650   -1.841160    0.358813
H     -0.331386   -2.034179   -1.403939
H      2.195471    0.908034   -1.308859
H      2.457154    1.492318    0.432845
H      4.469631   -1.603850   -1.491796
H      1.886047   -0.665059    1.307449
H     -0.233877    0.244427   -1.869458
