46

C      5.292348   -0.216155    0.458323
C      4.684856   -1.091085   -1.722087
C     -3.866436    0.429216   -1.076245
C     -3.340914   -1.937303   -0.937265
C     -1.638859    2.187077    0.178301
C     -3.059899    0.337321    2.073064
C     -3.585920   -0.697324    1.144248
C     -1.560972    0.520838    2.042788
C     -0.643952   -0.848906   -0.814012
C      4.419226    0.023637   -0.779341
C      0.590395   -0.155901   -0.415129
C     -1.646464   -0.270830   -0.210040
C      3.026296    0.250522   -0.409086
C      0.314476    0.816404    0.412724
C      1.972323   -0.424614   -0.817945
C      2.748011    1.348011    0.520964
C      1.386897    1.647321    0.945882
C     -3.091809   -0.592266   -0.277399
C     -1.159888    0.826642    0.613711
O      2.258864   -1.471414   -1.707859
O      3.698872    2.062229    0.975354
O      1.123363    2.586926    1.745503
H      4.645241   -0.043093    1.341936
H      6.132957    0.471691    0.518125
H      5.597655   -1.291694    0.517418
H      4.464768   -2.087295   -1.284838
H      4.278426   -0.951384   -2.743969
H      5.805330   -1.111575   -1.880269
H     -4.599585   -0.047522   -1.775488
H     -3.236978    1.083543   -1.683517
H     -4.507466    0.999644   -0.348957
H     -3.356974   -1.732169   -2.046684
H     -2.583034   -2.683577   -0.690637
H     -4.344163   -2.310955   -0.664125
H     -1.053966    2.929143    0.784935
H     -1.348115    2.329617   -0.868379
H     -2.689795    2.377491    0.398359
H     -3.591943    1.298283    1.904352
H     -3.318967    0.025828    3.106450
H     -4.681771   -0.611014    1.115456
H     -3.366166   -1.739972    1.480248
H     -1.070490   -0.398468    2.360684
H     -1.316770    1.332453    2.740561
H     -0.648402   -1.697702   -1.503771
H      4.822357    0.970660   -1.246798
H      2.047038   -2.442284   -1.475542
