72

C      2.177512   -0.415614    1.258534
C     -6.198361    2.380196    1.015201
C     -6.925444    1.004165   -0.701052
C      5.793218    1.273422    1.010377
C      4.528935    1.223327    0.506249
C      0.370622   -2.446782   -0.326050
C      8.058548    0.476366    1.014363
C      1.742290   -1.934950   -0.571519
C     -2.305824    0.348348    1.603966
C     -0.801515    0.315712    1.440027
C      9.012453   -0.364324    0.504441
C      5.227824   -0.522528   -1.010111
C     -1.982924   -2.253272    0.185763
C      1.013141    1.651753   -0.599142
C     -4.037156    0.809458   -0.128380
C      7.477030   -1.308381   -1.000523
C      6.787441    0.425994    0.509030
C      4.246013    0.318768   -0.510780
C      6.511073   -0.470561   -0.497485
C     -0.656216   -1.695180   -0.044626
C     -3.046216   -1.441724    0.055435
C     -5.141253    0.291163    0.765433
C      2.302940    1.562677   -1.435024
C      0.622173    0.220615   -0.629841
C      2.902061    0.235293   -1.076279
C     -4.411641   -1.914226   -0.225253
C     -5.375955   -1.175548    0.671784
C      1.888258   -0.477604   -0.193386
C     -2.796924    0.008197    0.202519
C     -0.605454   -0.190888    0.067284
N      8.713608   -1.238274   -0.487228
N     -6.385636    0.992241    0.623222
O      3.120205    2.640669   -1.265429
O     -4.762642   -1.684496   -1.571815
O     -5.285389   -1.807069    1.936245
O     -1.714094    0.337557   -0.630208
H      1.677757   -1.301567    1.754501
H      1.961543    0.518000    1.769097
H      3.269154   -0.646289    1.410169
H     -7.000299    2.642973    1.758600
H     -6.269606    3.077275    0.174244
H     -5.235780    2.475575    1.555433
H     -8.034146    1.195971   -0.589782
H     -6.573055    1.901247   -1.291494
H     -6.844974    0.071182   -1.263813
H      6.054762    1.950669    1.788706
H      3.713832    1.853791    0.850211
H      0.228026   -3.518394   -0.387721
H      8.248400    1.190732    1.804829
H      2.076467   -2.121770   -1.614013
H      2.430134   -2.513780    0.078372
H     -2.681014   -0.460751    2.268284
H     -2.659272    1.347277    1.932294
H     -0.431432   -0.328005    2.263878
H     -0.386177    1.341825    1.499993
H     10.021547   -0.312175    0.917179
H      5.029902   -1.238017   -1.805434
H     -2.139555   -3.276370    0.448326
H      1.207302    2.062723    0.389689
H      0.277084    2.325537   -1.104520
H     -4.280104    0.807457   -1.188529
H     -3.865419    1.867128    0.166308
H      7.231853   -2.019983   -1.808633
H     -4.767891    0.489075    1.815917
H      1.939477    1.565512   -2.501523
H      0.498618   -0.055895   -1.720097
H      2.928174   -0.399240   -2.014222
H     -4.529932   -3.006930   -0.032756
H     -6.424559   -1.389021    0.319910
H      3.364527    3.081849   -2.125097
H     -5.674385   -2.065139   -1.673096
H     -4.423658   -2.286973    2.025168
