83

C      2.321078   -0.742355   -2.369078
C     -2.419331    1.283612   -2.778256
C      2.798420   -0.594336   -3.654248
C     -3.538882    0.984853   -3.534633
C      4.466508   -1.545301   -1.674389
C     -3.826066    2.374545   -1.220691
C     -2.778142   -3.231618    0.497660
C     -3.714755   -1.443745    1.704198
C      3.302444    3.492864    0.297191
C      1.835178    3.812017   -1.559850
C      2.904282   -2.164573    2.255849
C      0.553089   -0.107343    4.252433
C      3.169915   -1.219970   -1.389855
C     -2.551981    1.981547   -1.613556
C     -2.768606   -1.896804    0.823197
C      3.057626    4.007554   -0.957720
C      1.926691   -1.113202    2.622090
C      4.114529   -0.923367   -3.948660
C     -4.805467    1.384430   -3.128980
C      1.461866   -1.088758    3.918061
C      4.970881   -1.402239   -2.973349
C     -4.957876    2.090926   -1.953990
C      2.360093    2.774043    0.996662
C      0.111052    0.832231    3.325686
C     -3.733841   -4.089025    1.059259
C     -4.672814   -2.285290    2.271662
C      3.665810   -1.739361    1.003010
C      0.888601    3.082339   -0.841484
C      1.132238    2.570995    0.405321
C      0.579334    0.803397    2.029684
C      0.077604    1.819907    1.087438
C     -4.670372   -3.616990    1.937309
C      2.638346   -1.359331   -0.034101
C     -1.442394    2.359516   -0.730853
C      1.483698   -0.173225    1.697428
C     -0.833748    1.224874    0.035156
C     -1.781572   -1.010351    0.241847
O      4.019920    4.734646   -1.658286
O      4.588730   -0.773920   -5.234623
O     -5.912847    1.063789   -3.920490
O      1.879260   -2.015836    4.886335
O      6.292523   -1.740654   -3.232284
O     -6.231680    2.499122   -1.535983
O      2.633119    2.260107    2.273341
O     -0.801600    1.785551    3.737539
O     -3.705753   -5.433685    0.700867
O     -5.574390   -1.716649    3.144991
O      4.546058   -0.726583    1.293779
O     -5.598179   -4.490733    2.472920
O     -0.902912   -1.395065   -0.573381
O     -0.352942    2.906905   -1.498715
O      1.947688   -0.193384    0.396246
O     -1.767474    0.331282    0.570957
H      1.298249   -0.484023   -2.152533
H     -1.422611    0.982566   -3.074664
H      2.175116   -0.226187   -4.450185
H     -3.429569    0.428919   -4.461104
H      5.128121   -1.913223   -0.911975
H     -3.965840    2.933679   -0.294379
H     -2.073655   -3.680840   -0.186445
H     -3.718716   -0.391256    1.970855
H      4.279976    3.664044    0.748558
H      1.604971    4.200787   -2.544901
H      2.444025   -3.157988    2.131770
H      3.689782   -2.291954    3.047812
H      0.185087   -0.084631    5.272838
H      4.179874   -2.682271    0.653256
H     -0.551630    2.574087    1.621918
H      1.856741   -2.176296    0.028606
H     -1.722145    3.154431   -0.013147
H     -0.176799    0.654249   -0.651501
H      3.848624    5.111941   -2.572438
H      3.978975   -0.425084   -5.962478
H     -6.831479    1.352693   -3.628752
H      2.533185   -2.731555    4.665266
H      6.617263   -1.620568   -4.191907
H     -6.312135    3.016697   -0.669504
H      3.499784    2.388856    2.737311
H     -1.134264    1.801526    4.668641
H     -4.367929   -6.101203    1.070745
H     -6.280897   -2.247750    3.584296
H      4.581835   -0.073758    0.531006
H     -6.296899   -4.203250    3.112370
