67

C      0.028081    1.537087   -2.073329
C     -7.353802   -0.460761    0.691752
C     -6.620414   -1.146022   -0.236877
C     -3.637340    2.540669    1.384451
C     -0.912315   -3.736795    0.638578
C     -6.774278    0.638667    1.310237
C     -4.931136    2.128371    1.653558
C     -5.339237   -0.740470   -0.538650
C     -2.916923    1.828673    0.439902
C     -1.614856   -2.643768    0.114250
C      0.474087   -3.799289    0.616774
C      4.894570    0.499502    1.517466
C      4.791736    1.223367   -0.745463
C      6.364802    0.840758    1.310394
C      5.327713    2.430560   -0.011350
C      2.894476    0.132153    0.237666
C      3.010509   -1.860408   -1.160321
C     -0.102493    0.228157   -1.393159
C     -5.485028    1.047214    1.007359
C      2.392806   -0.471529   -1.086253
C     -4.726713    0.358551    0.063394
C     -3.441214    0.747774   -0.222660
C     -0.931660   -1.580851   -0.446956
C      1.141280   -2.740629    0.057509
C     -1.287409   -0.367738   -1.049293
C      0.436297   -1.678013   -0.449648
C     -2.661229    0.059479   -1.221437
N      4.336917    0.198925    0.193360
N      0.940218   -0.587597   -1.016314
O     -3.223341   -0.194809   -2.338961
O      6.383002    2.149696    0.846800
O      2.548739   -2.656423   -0.044639
C      1.076084    0.029669    0.102885
O     -1.448160    0.919621   -0.665066
O     -1.227272   -0.830526    1.237107
O     -0.780277   -1.608187   -1.013307
S     -0.624846   -0.443896   -0.088508
H     -0.861981    2.161302   -1.911408
H      0.982727    2.022539   -1.800769
H      0.075353    1.390956   -3.194499
H     -8.369923   -0.741892    0.966521
H     -7.065710   -2.018916   -0.730997
H     -3.265180    3.388565    1.925467
H     -1.487710   -4.536422    1.065680
H     -7.342313    1.188187    2.039796
H     -5.502627    2.681604    2.393010
H     -4.816051   -1.326014   -1.268393
H     -1.914628    2.158454    0.240573
H     -2.703795   -2.590566    0.125002
H      0.983954   -4.646056    1.023895
H      4.387259    1.282750    2.064119
H      4.890988   -0.458711    2.081284
H      3.913643    1.571365   -1.314892
H      5.508690    0.776906   -1.444908
H      6.870131    0.808797    2.285620
H      6.845716    0.137597    0.596040
H      5.702587    3.141912   -0.774727
H      4.546109    2.953536    0.565052
H      2.546125   -0.461418    1.087955
H      2.500935    1.151224    0.327048
H      2.726694   -2.299088   -2.121188
H      4.099004   -1.763821   -1.062626
H      2.744159    0.102708   -1.928770
H      1.484366   -0.348168    1.063888
H      1.215376    1.134610    0.028221
H      1.635362   -0.457293   -0.726984
H     -1.330632    1.604169    0.061763
