23

C      2.269427   -1.513785   -0.663136
C      1.502233    1.982827    0.518181
C      2.191633    0.857367    0.083565
C      0.133683    1.938009    0.672541
C     -0.774070   -1.463361   -0.278792
C     -2.068245   -0.695842   -0.594849
C      1.522346   -0.316457   -0.199093
C      0.146427   -0.311746   -0.028518
C     -0.572658    0.778449    0.398961
C     -1.994354    0.378063    0.453596
O     -2.865503    1.421792    0.221148
H      3.189750   -1.585622   -0.011905
H      2.649450   -1.413234   -1.695455
H      1.701784   -2.448539   -0.494888
H      2.063977    2.896101    0.732991
H      3.270438    0.875414   -0.043396
H     -0.410249    2.791344    1.004682
H     -0.948131   -2.018583    0.640309
H     -0.477323   -2.056052   -1.145053
H     -1.986956   -0.208346   -1.578952
H     -2.944762   -1.349541   -0.488257
H     -2.197246   -0.113009    1.436312
H     -3.401653    1.574749    1.060008
