35

C     -4.636932    0.529610   -0.337501
C     -2.517121    1.051371   -1.120767
C      4.012179    0.529519   -2.200940
C      4.284237   -0.339159   -1.189472
C      1.746154    0.827427   -1.407710
C     -0.735807   -1.308009    1.992472
C      2.526315    1.993896   -3.381527
C      2.073990   -1.393939    1.311990
C     -2.692695   -0.362234    0.739568
C      2.752296    1.117084   -2.320936
C     -1.329276   -1.001378    0.613062
C     -0.148895   -0.248176    0.999362
C      2.022611   -0.042212   -0.398040
C      1.234300   -0.536170    0.633864
C      3.277303   -0.611580   -0.300304
N      2.339550    2.723455   -4.295431
N      3.292594   -1.440903    0.757841
N     -3.298467   -0.050343   -0.539977
H     -4.559469    1.239096    0.512013
H     -4.910739    1.023643   -1.283702
H     -5.370963   -0.270624   -0.092445
H     -3.129263    1.562123   -1.895341
H     -2.365726    1.782018   -0.290258
H     -1.574543    0.669686   -1.540327
H      4.811539    0.738256   -2.901213
H      5.271740   -0.799541   -1.096100
H      0.771658    1.254158   -1.462971
H     -1.195627   -0.903409    2.894251
H     -0.231505   -2.294554    2.008653
H      1.818756   -1.988454    2.204710
H     -3.415137   -1.019338    1.282328
H     -2.611478    0.559764    1.391074
H     -1.281743   -1.784017   -0.176841
H     -0.309465    0.812424    1.334605
H      4.079629   -2.019489    1.105448
