83

C      4.461631   -1.839297   -2.322617
C     -3.168852    3.659107    0.616637
C      4.638187   -2.857469   -3.226425
C     -3.870939    4.482345    1.466264
C      2.830900   -3.056113   -1.153739
C     -4.547049    1.890053    1.273614
C     -1.730442   -3.392700   -0.741153
C     -2.507826   -3.856492    1.426801
C      0.898454    4.330705   -2.241782
C     -1.362038    3.916604   -2.733191
C      4.197053   -0.036267    1.817296
C      1.809003    2.659775    2.707939
C      3.571665   -1.913056   -1.285789
C     -3.483945    2.325743    0.490523
C     -2.053588   -2.941488    0.510256
C     -0.253321    4.689486   -2.947984
C      2.985284    0.831146    1.773222
C      3.899584   -4.011925   -3.104557
C     -4.927742    4.012032    2.234990
C      2.887740    1.832215    2.714228
C      2.995845   -4.102702   -2.062618
C     -5.255528    2.688227    2.121048
C      0.918973    3.267715   -1.382475
C      0.811688    2.491300    1.753122
C     -1.845440   -4.729434   -1.106462
C     -2.646813   -5.193615    1.131975
C      3.958224   -1.266424    0.997483
C     -1.329851    2.825317   -1.847481
C     -0.200376    2.493949   -1.170867
C      0.868399    1.500098    0.790569
C     -0.182479    1.329639   -0.249575
C     -2.304975   -5.617429   -0.160561
C      3.468969   -0.775467   -0.369587
C     -2.716819    1.453599   -0.405549
C      1.973867    0.674821    0.822115
C     -1.483311    0.837029    0.227683
C     -1.949702   -1.509095    0.874465
O     -0.318100    5.745910   -3.818128
O      4.067778   -5.048016   -4.009714
O     -5.634759    4.828450    3.086914
O      3.895790    2.011119    3.685959
O      2.221286   -5.236676   -1.882331
O     -6.318065    2.156643    2.876129
O      2.072226    2.936819   -0.696545
O     -0.245796    3.353420    1.798733
O     -1.525937   -5.221475   -2.358927
O     -3.104852   -6.122469    2.051362
O      2.959458   -2.024570    1.549161
O     -2.443600   -6.946514   -0.455806
O     -2.183220   -1.129286    2.039437
O     -2.470624    2.061353   -1.649328
O      2.115159   -0.366724   -0.120113
O     -1.594469   -0.569232   -0.077026
H      5.082544   -0.959523   -2.486841
H     -2.363216    4.121825    0.058251
H      5.349285   -2.786102   -4.047374
H     -3.639322    5.533664    1.592002
H      2.114198   -3.142556   -0.336949
H     -4.811784    0.853267    1.182379
H     -1.367213   -2.708713   -1.502900
H     -2.764344   -3.485275    2.422188
H      1.772750    4.962023   -2.429958
H     -2.310125    4.107650   -3.236734
H      4.556292   -0.226887    2.831939
H      4.991890    0.559448    1.269449
H      1.752893    3.441258    3.456451
H      4.912612   -1.812064    0.898949
H      0.235199    0.499464   -0.922032
H      4.117734    0.061605   -0.660681
H     -3.455401    0.615831   -0.662695
H     -1.673933    0.896530    1.324577
H      0.422632    6.373250   -4.047898
H      4.747171   -4.914083   -4.748428
H     -6.399228    4.464795    3.636226
H      3.807387    2.755669    4.362784
H      2.279922   -6.032223   -2.491360
H     -6.557084    1.176192    2.781798
H      2.897894    3.481764   -0.822538
H     -0.408920    4.103118    2.435504
H     -1.181369   -4.664739   -3.132236
H     -3.348044   -5.770576    2.979226
H      2.629869   -1.642865    2.382784
H     -2.236994   -7.382431   -1.343480
