42

C     -0.410284    3.346499   -2.488342
C      2.409416    1.294335    1.285468
C     -4.657878   -2.340183    1.414607
C     -3.892012   -1.433628    0.718116
C     -6.027844   -2.129461    1.501470
C      5.063125   -1.963918   -0.480838
C      4.746872   -0.788380    1.521321
C      6.139531   -2.629386    0.003558
C      5.863108   -1.486836    2.004870
C     -5.771926   -0.128734    0.194844
C     -0.402724    1.915202   -1.959638
C      4.326595   -1.022608    0.250462
C     -4.405331   -0.316369    0.093916
C     -6.577009   -1.023219    0.890000
C     -1.811125    1.603036   -1.536461
C      3.189167   -0.406878   -0.416819
C     -3.568523    0.629741   -0.638941
C      1.478408    0.809866   -0.961488
Cl    -8.305260   -0.789925    1.020252
N      6.538646   -2.379232    1.269996
N     -2.236122    0.549246   -0.801468
N      2.772432   -0.742858   -1.642595
N      1.748553   -0.013257   -1.965885
N     -2.923815    2.309991   -1.805602
N      2.398608    0.558047    0.026250
O      0.473815    1.747298   -0.894942
O     -3.958095    1.702550   -1.255475
H      0.375326    3.431093   -3.267953
H     -0.136288    4.062001   -1.663796
H     -1.416228    3.596330   -2.864219
H      3.359213    1.830157    1.464201
H      1.654281    2.131338    1.199302
H      2.143771    0.695889    2.160414
H     -4.246844   -3.215319    1.902100
H     -2.830518   -1.614618    0.662033
H     -6.622150   -2.849136    2.052165
H      4.748248   -2.167759   -1.496527
H      4.242178   -0.097201    2.146839
H      6.709305   -3.353964   -0.556070
H      6.164549   -1.265368    3.032509
H     -6.211174    0.738478   -0.283101
H     -0.133997    1.207140   -2.766807
