59

C     -0.384777    2.621026    1.093260
C      0.385846   -2.245621    1.444458
C      5.343739   -2.180550   -1.265145
C     -5.016925    3.022914   -0.319069
C     -3.735712   -3.898383   -0.876334
C      4.726724   -2.407305   -0.047431
C      5.529637   -0.941697   -1.797197
C     -5.122508    1.810171    0.325251
C     -3.798026    3.422413   -0.826518
C     -3.164559   -4.044642    0.365873
C     -3.660162   -2.724013   -1.598774
C      4.293573   -1.279274    0.625654
C      5.082221    0.165454   -1.093622
C     -4.018700    1.000820    0.462527
C     -2.723018    2.588790   -0.669840
C     -2.487809   -2.967628    0.909024
C     -2.973536   -1.665069   -1.023411
C      3.985560    1.146322    0.884053
C      2.429024    1.785773   -0.959691
C      4.471183   -0.011506    0.105334
C     -2.792568    1.360365   -0.026603
C     -2.388264   -1.781412    0.224033
C      2.537945    1.453902    0.528408
C     -1.574976    0.562138    0.042884
C     -1.626432   -0.679671    0.851295
C      0.492917    0.207038    0.841589
N      1.744093    0.306535    0.769700
N     -0.473584    1.263681    0.694154
N     -0.245278   -1.019426    1.077169
O      3.183393    2.907899   -1.227459
H      0.119140    2.768307    2.080539
H     -1.422594    3.027484    1.292243
H      0.082443    3.315210    0.376587
H      1.491223   -2.173331    1.301644
H      0.057901   -3.134303    0.839202
H      0.173251   -2.496811    2.503490
H      5.712202   -3.030068   -1.853346
H     -5.859069    3.698318   -0.453294
H     -4.266842   -4.762216   -1.288762
H      4.584475   -3.401359    0.366275
H      6.022382   -0.793291   -2.765055
H     -6.099873    1.529354    0.711992
H     -3.732066    4.386656   -1.334226
H     -3.222957   -4.963849    0.932748
H     -4.122554   -2.655053   -2.567151
H      3.807467   -1.404101    1.577416
H      5.245372    1.148664   -1.540444
H     -4.110288    0.054315    0.973395
H     -1.776006    2.949116   -1.090377
H     -2.039273   -3.076260    1.912338
H     -2.893198   -0.736745   -1.556766
H      4.600419    2.068346    0.679992
H      4.037897    0.995791    1.978848
H      1.366415    2.016379   -1.170982
H      2.723914    0.913173   -1.581924
H      2.181784    2.341654    1.062239
H     -1.248051    0.340477   -1.006725
H     -2.056349   -0.413490    1.850348
H      2.623813    3.708586   -1.123138
