42

C      1.225077    1.569611    2.281657
C     -2.790684   -1.431477    1.153064
C      7.271717   -0.145052    0.092957
C      5.921623    0.090296    0.167490
C      7.815836   -0.855301   -0.961148
C     -6.190312    1.026301   -0.604679
C     -5.825812   -1.054022    0.368100
C     -7.512620    0.760695   -0.805390
C     -7.194400   -1.328517    0.160120
C      5.575894   -1.084271   -1.868278
C      0.649672    1.273484    0.897165
C     -5.285038    0.135532   -0.010437
C      5.066413   -0.371294   -0.801499
C      6.927657   -1.307713   -1.922602
C      1.711102    0.628135    0.072896
C     -3.898190    0.537949    0.153709
C      3.619880   -0.100533   -0.690905
C     -1.716777    0.713913    0.578048
Cl     7.578909   -2.214549   -3.278686
N     -8.009132   -0.437090   -0.413039
N      3.032517    0.578117    0.300184
N     -3.423362    1.784825   -0.218214
N     -2.141432    1.860822    0.041753
N      1.543197   -0.041108   -1.080005
N     -2.833627   -0.086317    0.633362
O     -0.423454    0.379097    0.998495
O      2.683307   -0.466436   -1.519745
H      0.506641    2.234160    2.812349
H      2.157112    2.143860    2.156867
H      1.413767    0.633942    2.848663
H     -3.075728   -2.172292    0.387664
H     -3.379062   -1.590617    2.065460
H     -1.721510   -1.676687    1.422743
H      7.940612    0.234147    0.881042
H      5.486755    0.651893    0.999940
H      8.880692   -1.036624   -1.012799
H     -5.798812    1.976756   -0.916790
H     -5.227909   -1.808732    0.835714
H     -8.197780    1.463334   -1.267649
H     -7.606500   -2.275053    0.465526
H      4.883948   -1.443222   -2.628167
H      0.359817    2.250043    0.456851
