37

C     -3.278656   -0.629040   -0.138564
C     -2.115620   -0.072169    1.870812
C     -2.885431    1.637680    0.495144
C      4.625002    0.602887    0.644846
C      4.483206   -0.181363   -0.455487
C     -0.318785   -1.011754    0.093258
C      2.323200    0.378810    1.164142
C      1.452233   -1.704452   -1.576682
C      1.034663   -1.041444   -0.448212
C      3.570519    0.888507    1.453421
C      2.149804   -0.416191    0.059476
C      3.247461   -0.700198   -0.762572
C     -1.042752    0.286053   -0.178153
C     -1.160256    0.529036   -1.632012
Br     3.826208    2.002016    2.995747
N      2.766104   -1.483274   -1.736121
N     -2.339578    0.272678    0.458861
O     -0.175240    0.583163   -2.394226
O     -2.416926    0.713033   -2.226827
H     -4.124739   -0.069914   -0.629136
H     -2.829872   -1.238479   -0.932666
H     -3.719773   -1.279430    0.671494
H     -1.157414    0.321411    2.240526
H     -2.908756    0.418519    2.482299
H     -2.245331   -1.148550    1.959101
H     -3.627112    1.666775    1.311582
H     -2.044102    2.310044    0.803076
H     -3.308250    1.949402   -0.457621
H      5.600196    1.026041    0.906964
H      5.305168   -0.425639   -1.117314
H     -0.359531   -1.230445    1.184965
H     -0.956004   -1.816576   -0.377315
H      1.500785    0.621323    1.823819
H      0.826736   -2.301036   -2.223089
H     -0.488635    1.162156    0.245618
H      3.336335   -1.870819   -2.516322
H     -2.544857    1.251239   -3.062835
