39

C     -5.934049    0.111596   -0.556156
C     -1.668369   -1.521792    1.404028
C     -4.411392    0.193425   -0.712906
C      3.482175    0.408236    1.225871
C      0.970919    0.047834    1.230737
C      3.235563   -0.265838   -1.452813
C      5.881326    0.671057    0.940963
C     -1.990906    0.817570    0.747376
C      2.249816    0.100093    0.679342
C      4.596458    0.375479    0.415051
C      4.459844    0.037752   -0.919930
C      2.113790   -0.238388   -0.657814
C      0.135655   -0.315042    0.210923
C     -1.348727   -0.484179    0.364728
C      5.679277    0.019276   -1.768970
F      6.260604    1.268628   -1.788911
F      5.339958   -0.292221   -3.063971
F      6.557871   -0.929122   -1.324574
N      6.908414    0.927516    1.361465
N      0.827073   -0.488551   -0.932171
O     -1.861739   -0.890132   -0.861937
O     -4.186971   -0.361400    1.858886
O     -4.336316    1.973646    1.325063
S     -3.733439    0.668541    0.852562
H     -6.241064    0.891232    0.157217
H     -6.175355   -0.887049   -0.128529
H     -6.363501    0.299565   -1.543267
H     -2.307630   -2.319602    1.002706
H     -2.089700   -1.110508    2.344287
H     -0.692974   -1.998612    1.700385
H     -4.180913    0.962875   -1.451133
H     -4.076139   -0.788262   -1.054312
H      3.587435    0.671444    2.261280
H      0.751437    0.264561    2.275331
H      3.162487   -0.523781   -2.494539
H     -1.581707    1.197060    1.726577
H     -1.693263    1.571146   -0.034136
H      0.417465   -0.767867   -1.854228
H     -1.743416   -0.125153   -1.484484
