34

C     -2.352122    2.274993    1.678842
C     -1.780643    1.102660    1.311651
C     -1.538460    3.332966   -0.266318
C     -1.348380   -1.421026   -0.115716
C      0.602115   -0.386937   -1.214182
C      0.044913   -4.652312    0.481513
C     -0.265870   -3.313479   -1.190106
C     -0.322807   -0.279732   -0.079705
C     -2.261879    3.423923    0.917129
C     -1.040798    0.979511    0.115435
C     -0.948651    2.134027   -0.643098
C      3.656939    1.288231   -0.061529
C      2.407270    0.453570   -0.107121
Cl    -3.015766    4.907483    1.383547
Cl    -0.212553    2.051157   -2.230350
F      3.485942    2.611303   -0.433876
F      4.061224    1.344807    1.285715
F      2.692324   -0.819566    0.270803
F      1.576890    1.022998    0.910997
N      0.216664   -4.514294   -0.878098
N     -0.520676   -3.550765    0.941753
N     -0.733470   -2.703511   -0.043702
O      1.632005    0.581127   -1.254532
H     -2.896386    2.324289    2.638798
H     -1.881924    0.249837    1.952778
H     -1.404898    4.193483   -0.930484
H     -1.936394   -1.329851   -1.040623
H     -2.002786   -1.309883    0.782413
H      0.088455   -0.481188   -2.199487
H      1.172757   -1.351013   -1.091328
H      0.346511   -5.549706    1.062545
H     -0.273185   -2.907312   -2.194078
H      0.248422   -0.549075    0.863872
H      4.505216    0.843285   -0.623456
