34

C     -3.526003   -1.809509    0.521508
C     -2.593245   -0.843180    0.241868
C     -1.792314   -3.447946    0.473800
C     -1.105715    1.057123   -0.959987
C      1.022904    0.147163   -0.335169
C     -0.567794    4.384022    0.237133
C      0.325667    3.048647   -1.186784
C     -0.376960    0.015145   -0.067898
C     -3.114552   -3.115025    0.635678
C     -1.209858   -1.127592    0.064296
C     -0.848997   -2.441533    0.186773
C      3.699705   -0.736273   -1.259707
C      3.256399   -0.377511    0.109598
Cl    -4.295609   -4.354569    0.999038
Cl     0.805235   -2.872207   -0.077355
F      5.016051   -0.276839   -1.439316
F      3.716661   -2.143935   -1.365581
F      4.090812   -0.996194    1.047640
F      3.564576    0.998265    0.263229
N      0.417937    4.282545   -0.656032
N     -1.259999    3.218365    0.253798
N     -0.699041    2.390693   -0.633805
O      1.945610   -0.606672    0.362071
H     -4.590531   -1.549296    0.658610
H     -2.993180    0.158527    0.205879
H     -1.404807   -4.440243    0.549916
H     -2.156278    0.967457   -1.044987
H     -0.717053    0.886388   -2.031818
H      1.327545    1.216539    0.006549
H      1.294517    0.240646   -1.428454
H     -0.757899    5.264673    0.829686
H      1.015391    2.674356   -1.957651
H     -0.511541    0.544726    1.001186
H      3.022367   -0.356758   -2.023292
