39

C     -5.328843    1.662574   -1.022393
C     -1.539287   -2.062670    1.116573
C     -5.306004    0.464460   -0.173519
C      3.615307   -1.495146   -0.451662
C      1.086958   -1.623564   -0.247503
C      3.122842    1.207389   -0.376842
C      5.884324   -0.944730    0.029505
C     -2.407273   -0.358364   -0.484418
C      2.282695   -1.074409   -0.414385
C      4.568665   -0.610958   -0.440760
C      4.352337    0.785140   -0.423608
C      2.081854    0.252273   -0.384991
C      0.054041   -0.651699   -0.055514
C     -1.299154   -0.759905    0.375912
C      5.520532    1.694109   -0.677143
F      5.613947    2.622539    0.309099
F      5.179971    2.468329   -1.852807
F      6.689976    1.032278   -1.003459
N      7.222199   -1.298116    0.487666
N      0.769227    0.530257   -0.178358
O     -1.403964    0.170996    1.529430
O     -3.235544    1.587209    1.068798
O     -3.793060   -0.626127    1.798940
S     -3.726965    0.140460    0.565651
H     -4.986729    1.401621   -2.022075
H     -4.761519    2.498416   -0.564080
H     -6.390233    2.038506   -1.104891
H     -0.483075   -2.408977    1.481388
H     -2.213265   -1.957389    1.984234
H     -1.874373   -2.905542    0.422390
H     -6.083372    0.587348    0.637526
H     -5.649615   -0.442166   -0.777566
H      3.821134   -2.606263   -0.515304
H      0.864836   -2.683185   -0.311307
H      2.897823    2.239945   -0.314020
H     -2.184501    0.453409   -1.150890
H     -2.780122   -1.196336   -1.141765
H      0.296954    1.439405   -0.030709
H     -0.478723    0.428883    1.785944
