49

C     -5.509234    0.563238    1.610382
C     -4.647079    0.683598   -0.788045
C     -1.464599    0.045232    1.326262
C      5.833044   -2.313280   -0.553119
C     -3.301325   -1.895562   -0.306134
C     -4.106176   -1.204696    0.705965
C     -1.876652   -2.143606    0.005566
C      2.522592    2.639368    0.932952
C      3.025857    2.693169   -0.285809
C     -0.143802   -0.521348   -0.602260
C      2.586115    0.240462    0.741579
C      2.403394   -0.847313   -1.502959
C     -4.719973   -0.040937    0.507006
C     -1.142303   -0.857650    0.218217
C      1.793489    1.420769    1.327634
C      2.782690    1.595212   -1.241442
C      0.665111    0.686179   -0.491024
C      3.874182   -1.104186   -1.458851
C      2.145127    0.394907   -0.702998
O      3.105962    1.695687   -2.437609
O      4.616480   -0.433792   -2.218384
O      4.458963   -2.028141   -0.638144
O      0.582625    1.399576    0.664431
H     -6.468344    0.986835    1.221134
H     -5.748248   -0.188296    2.372862
H     -4.959121    1.416408    2.041624
H     -3.618204    0.738270   -1.188680
H     -5.315832    0.135313   -1.498506
H     -5.064542    1.706487   -0.678588
H     -1.749344    1.059895    1.051564
H     -0.582880    0.025157    2.054555
H     -2.282236   -0.367358    1.974834
H      6.140389   -2.153468    0.516867
H      6.064910   -3.369424   -0.799273
H      6.473648   -1.670088   -1.165117
H     -3.404315   -1.278853   -1.252393
H     -3.764423   -2.887924   -0.585975
H     -4.219423   -1.681503    1.692842
H     -1.844142   -2.653236    1.011983
H     -1.357421   -2.782019   -0.735078
H      2.639368    3.451098    1.609621
H      3.630081    3.529375   -0.637948
H      0.054612   -1.216567   -1.406262
H      3.672425    0.373160    0.877382
H      2.199581   -0.726870    1.141104
H      2.000701   -0.749302   -2.508254
H      1.948721   -1.698396   -0.939030
H      1.659956    1.320258    2.411320
H      0.409596    1.345805   -1.395802
