38

C     -4.562456    0.989538    1.032159
C     -5.478421   -0.730331   -0.429809
C      5.184344    1.710045   -0.101779
C      4.692477    0.414751   -0.234212
C      4.327624    2.747391    0.114039
C     -1.865992    0.444307    0.346613
C     -0.425595   -2.820844   -0.223721
C     -4.331758    0.040177    0.167745
C      3.329441    0.170250   -0.147738
C     -0.707591   -0.486409    0.117526
C      2.957789    2.496059    0.200183
C      0.974488   -2.699991   -0.330185
C     -2.983678   -0.327829   -0.267454
C     -1.243044   -1.747556   -0.006502
C      1.487277   -1.413410   -0.200770
C      2.453944    1.219412    0.071327
C      0.660950   -0.310994    0.021201
C      2.831594   -1.130883   -0.280443
N      1.143086    0.941613    0.148705
O      2.135462    3.573659    0.418437
O      1.751629   -3.775532   -0.544173
O      3.633594   -2.065748   -0.477564
O     -2.643526   -1.665043    0.127376
H     -3.754806    1.556819    1.474832
H     -5.573323    1.223305    1.319533
H     -6.203181   -0.948842    0.385100
H     -5.146462   -1.676024   -0.854523
H     -5.954456   -0.097598   -1.213417
H      6.262101    1.814976   -0.182139
H      5.365889   -0.418129   -0.406231
H      4.721869    3.745765    0.214800
H     -1.682247    1.432423   -0.144064
H     -1.968757    0.598712    1.444614
H     -0.834686   -3.831878   -0.324885
H     -2.846651   -0.305204   -1.366921
H      0.462192    1.732185    0.315637
H      1.146113    3.586901    0.507051
H      2.684766   -3.986046   -0.654590
