75

C      2.520894    3.939881    0.695502
C     -1.201129   -3.706261   -1.118276
C     -3.858443   -4.179064    1.406735
C      1.874509    3.679526   -0.644530
C     -3.786292    1.720101   -0.382630
C     -4.053368    2.409465    0.806988
C     -2.729100    0.820049   -0.396651
C     -3.283006    2.191061    1.923954
C      4.263502    0.320623   -0.373053
C      3.662043   -0.813765   -1.112870
C      1.769364    0.100945   -2.207376
C     -0.723011   -2.319837   -0.757602
C     -1.966867    0.615585    0.734449
C     -2.228364    1.289237    1.904058
C      0.738014   -0.437725   -1.292434
C     -1.253563   -1.659888    0.232265
C     -0.809580   -0.311643    0.613695
C      0.228132    0.246541   -0.313862
C     -2.369803   -2.254988    1.045662
C      0.583711    1.662369   -0.044174
Cl    -1.303409    0.968992    3.381626
N      5.013742   -0.257117    0.768600
N      0.294665   -1.784173   -1.586453
O     -2.883179   -1.624156    1.998496
O      0.086086    2.318652    0.907501
O     -2.819895   -3.497047    0.732286
O      2.928855   -0.610719   -2.201443
O      1.477059    2.350641   -0.815170
C     -2.311556    0.325738   -0.024980
C     -1.713121   -0.477761    0.924949
C     -1.491113    0.847357   -1.004401
C     -0.353940   -0.746249    0.894556
C     -0.135754    0.587128   -1.045264
C      0.453372   -0.217396   -0.091093
O      3.028546    0.591407    0.759988
O      2.495166   -1.896209    0.449208
O      2.588214   -0.469845   -1.586835
S      2.164968   -0.556696   -0.127714
O     -0.004717    0.377268   -0.000000
O     -0.007648    0.362178   -0.000000
H      2.077393    3.377986    1.520414
H      3.607607    3.658765    0.580920
H      2.452752    5.017111    0.961781
H     -2.254313   -3.624735   -1.425592
H     -1.050771   -4.391810   -0.279884
H     -0.572257   -4.119821   -1.958389
H     -4.523996   -4.598858    0.607995
H     -3.472605   -4.983847    2.064789
H     -4.453500   -3.425389    1.947974
H      2.622213    3.910204   -1.431280
H      1.028577    4.385581   -0.819962
H     -4.393958    1.899954   -1.241017
H     -4.860835    3.119418    0.872308
H     -2.500555    0.274742   -1.300101
H     -3.493911    2.722820    2.830952
H      5.031395    0.808548   -1.026532
H      3.581077    1.028421    0.098487
H      4.537810   -1.477780   -1.420997
H      3.165564   -1.471122   -0.328554
H      1.314229   -0.188157   -3.257379
H      1.849775    1.161970   -2.320083
H     -0.331045   -0.403563    1.630693
H      5.350161   -1.217537    0.534479
H      4.429081   -0.292340    1.614654
H      0.688548   -2.347845   -2.360970
H     -3.374513    0.524168    0.015031
H     -2.366215   -0.881741    1.688791
H     -1.926009    1.480111   -1.763378
H      0.101180   -1.390224    1.663231
H      0.468070    1.028012   -1.846207
H      2.372705    1.252200    1.094121
H     -0.811001   -0.190298   -0.000000
H      0.815718   -0.186970    0.000000
H     -0.823709   -0.183612   -0.000000
H      0.831357   -0.178566    0.000000
