22

C     -2.617001   -1.274360    0.379018
C     -3.392507   -0.160733    0.020636
C     -1.228165   -1.152223    0.316930
C     -2.744875    0.999025   -0.379646
C      1.625788   -0.074841    1.088159
C     -0.585616   -0.038468   -0.069335
C     -1.337084    1.084897   -0.442621
C      0.888066    0.140506   -0.247305
C      3.110923    0.101027    0.827838
Br    -0.532340    2.705106   -0.941708
O      1.343014   -0.999206   -1.012079
O      3.844896   -0.868104    0.634168
O      3.710767    1.372403    0.783661
H     -3.043446   -2.205015    0.697911
H     -4.464532   -0.182435    0.060191
H     -0.614606   -2.045467    0.576595
H     -3.345638    1.873045   -0.672027
H      1.254991    0.793406    1.722980
H      1.423213   -0.972701    1.589182
H      1.190044    1.022844   -0.796899
H      1.353168   -1.737129   -0.330299
H      4.160940    1.618421   -0.102758
