43

C      3.040397    0.864594   -0.783194
C     -2.954541    0.544454    1.005613
C     -2.520377    1.278832   -1.272710
C      0.672602   -1.086911   -1.210155
C     -1.693916   -2.061115    0.271488
C      1.276503    2.171485    0.238549
C      0.052859    1.754843   -0.555773
C     -2.260776   -1.057742   -0.663862
C     -0.383822   -1.700943    0.881079
C      2.238327    1.031131    0.452424
C     -0.582902    0.614524    0.175625
C      1.548986   -0.193368    0.969652
C      2.417268   -1.306908    1.293969
C     -1.994058    0.347325   -0.175460
C      0.326078   -0.577678    0.130725
O      2.452142   -1.786911    2.478693
O      3.271327   -1.956443    0.412723
H      3.739591    1.757126   -0.827069
H      2.459490    0.937601   -1.724045
H      3.730938   -0.007602   -0.783249
H     -3.929766    0.133247    0.655912
H     -2.552066   -0.101897    1.819067
H     -3.007530    1.594494    1.302236
H     -2.610030    2.310805   -0.917979
H     -1.977664    1.161756   -2.213254
H     -3.573852    0.923669   -1.461872
H      0.353243   -0.443946   -2.052731
H      1.761969   -1.301823   -1.232022
H      0.210282   -2.096065   -1.432267
H     -1.677086   -3.060629   -0.251342
H     -2.420731   -2.207778    1.114298
H      0.965188    2.559182    1.229806
H      1.844757    2.971603   -0.314566
H      0.314613    1.544118   -1.597128
H     -0.616910    2.650291   -0.573270
H     -1.995691   -1.197071   -1.723164
H     -3.386339   -1.174933   -0.641631
H      0.279537   -2.591731    0.815984
H     -0.446507   -1.463383    1.975754
H      2.931676    1.372007    1.257695
H     -0.580011    0.930216    1.261577
H      1.073685    0.151197    1.942191
H      4.203119   -2.229619    0.721682
