39

C     -2.679196    1.092002    1.547059
C     -4.006783    0.098316   -0.380178
C      3.991704    0.687698    1.218187
C      0.634597   -1.840293    0.515616
C      1.714668    1.562534    0.713607
C      0.339382    0.959953    0.972622
C      2.724725   -0.395855   -0.490502
C     -1.651840   -0.433349   -1.855472
C      1.636001   -0.758758   -1.441503
C     -0.694996   -1.591929   -1.555768
C     -2.656510    0.470196    0.217748
C      2.755850    0.584449    0.419355
C     -1.599944    0.221928   -0.469809
C     -0.175648    0.401868   -0.289790
C      0.364612   -0.965164   -0.661948
H     -1.971358    0.636499    2.253489
H     -2.555073    2.193982    1.534684
H     -3.710495    0.925384    2.017566
H     -4.069024    0.525870   -1.403902
H     -4.063450   -0.988695   -0.434439
H     -4.831902    0.492810    0.226586
H      3.819007    0.166892    2.182979
H      4.894171    0.313513    0.688980
H      4.223058    1.754270    1.499236
H     -0.173023   -1.836533    1.277216
H      1.633932   -1.637944    0.972441
H      0.697940   -2.895941    0.140912
H      1.572471    2.248604   -0.169014
H      2.015452    2.222387    1.556310
H      0.332921    0.315764    1.848996
H     -0.286040    1.868397    1.218794
H      3.619958   -0.987125   -0.518153
H     -2.652135   -0.754290   -2.117466
H     -1.167439    0.292555   -2.525809
H      1.895596   -1.714124   -1.923562
H      1.458588    0.003883   -2.209918
H     -0.267086   -2.015470   -2.482270
H     -1.282279   -2.330861   -0.973722
H      0.169591    1.106576   -1.119160
