70

C      2.337786    0.296334   -1.923383
C     -6.797243    1.186174    0.771672
C     -6.670125    0.808591   -1.588377
C      6.433088    1.012619   -0.815871
C      5.069538    1.231305   -0.785359
C      0.841032   -2.042579    0.246665
C      8.455360    0.121615    0.162273
C      2.118094   -1.392045   -0.140179
C     -2.393706   -0.480246   -1.670425
C     -0.905003   -0.218591   -1.768998
C      9.044737   -0.555796    1.202188
C      4.944348    0.097483    1.303868
C     -1.599094   -2.179425    0.555012
C      0.886639    2.027225   -0.352801
C     -3.951990    0.610954   -0.077791
C      6.937728   -0.786918    2.279713
C      7.098857    0.334635    0.201689
C      4.314811    0.771744    0.281218
C      6.304454   -0.112365    1.258233
C     -0.354038   -1.515659    0.166034
C     -2.715879   -1.462496    0.583117
C     -5.135521   -0.326662   -0.128502
C      2.350108    2.243697   -0.172851
C      0.711038    0.585401   -0.007162
C      2.896130    0.971843    0.338100
C     -3.878592   -1.936394    1.347768
C     -5.163621   -1.248445    1.047286
C      2.032309    0.020030   -0.480719
C     -2.687769   -0.202759   -0.187065
C     -0.497957   -0.124004   -0.355512
N      8.264041   -0.978645    2.211409
N     -6.397213    0.308615   -0.278374
O      2.922409    3.268583   -0.411030
O     -3.644317   -1.795439    2.737968
O     -6.171011   -2.210518    0.829595
O     -1.579119    0.522518    0.249321
H      1.685693   -0.306707   -2.591593
H      3.362775   -0.146447   -2.107560
H      2.384780    1.348905   -2.192495
H     -7.064565    0.664851    1.689904
H     -6.077134    2.021341    0.897250
H     -7.748673    1.685463    0.418902
H     -6.727083    1.916245   -1.612343
H     -7.701189    0.444154   -1.867315
H     -5.937830    0.413662   -2.328615
H      7.059617    1.354484   -1.630587
H      4.663152    1.774758   -1.627081
H      0.893062   -3.077323    0.645462
H      9.062757    0.465241   -0.648281
H      2.867689   -1.674274    0.623106
H      2.454724   -1.958402   -1.062493
H     -2.977940    0.204852   -2.316612
H     -2.674951   -1.525807   -1.911668
H     -0.502554   -1.122666   -2.298463
H     -0.771669    0.701356   -2.361343
H     10.130364   -0.751586    1.215830
H      4.398867   -0.291946    2.179226
H     -1.571221   -3.241259    0.810503
H      0.522284    2.241079   -1.350027
H      0.375301    2.705190    0.351257
H     -3.917295    1.174737    0.863264
H     -4.013017    1.254548   -0.978917
H      6.330482   -1.136796    3.101880
H     -4.980939   -0.962716   -1.041827
H      0.795032    0.548006    1.125706
H      2.540768    0.815718    1.402051
H     -3.953506   -3.036584    1.161670
H     -5.534996   -0.651886    1.921854
H     -4.516081   -1.940841    3.183904
H     -6.277012   -2.666480    1.706716
