39

C      3.829947   -1.228164   -0.098291
C     -0.762624    3.150398   -0.413462
C     -0.547488   -2.665882    0.686790
C     -0.859199   -1.296331   -1.304832
C     -2.819535    0.320956    0.201226
C     -2.223421    1.565873    0.825937
C      2.303260    0.593059   -0.969816
C      1.293315    1.630405   -0.516467
C     -2.197313   -0.892227    0.783619
C      1.537192   -0.975502    0.702024
C      2.479947   -0.538758   -0.085642
C     -0.870372    1.839078    0.204735
C      0.150116    1.002489    0.190255
C      0.216782   -0.360124    0.764483
C     -0.857623   -1.267518    0.185035
H      3.797033   -2.140245   -0.726376
H      4.604659   -0.544043   -0.464911
H      4.062264   -1.441056    0.965474
H      0.206678    3.659672   -0.303155
H     -0.994217    3.145725   -1.516867
H     -1.513705    3.831840    0.039207
H     -0.356570   -2.690420    1.778617
H      0.266232   -3.131255    0.102488
H     -1.461128   -3.304967    0.519850
H     -1.869272   -1.356405   -1.754071
H     -0.322323   -0.407484   -1.687335
H     -0.302391   -2.184096   -1.728626
H     -3.897674    0.320141    0.452023
H     -2.750960    0.397319   -0.898359
H     -2.077816    1.397976    1.899350
H     -2.916913    2.388939    0.662958
H      2.011422    0.205630   -1.986459
H      3.287279    1.093691   -1.139004
H      1.827455    2.272383    0.210440
H      0.990026    2.167005   -1.442474
H     -2.872927   -1.788122    0.776437
H     -2.006559   -0.692067    1.870414
H      1.707333   -1.845063    1.364375
H     -0.090914   -0.232851    1.850406
