39

C     -2.097247   -2.262644    0.631272
C     -3.791298   -0.389000    0.690043
C      3.922813   -1.021769    1.055666
C      0.129161    1.339020    1.267519
C      1.430397   -1.321211    0.638959
C      0.605454   -1.231067   -0.620436
C      2.711152    0.730793   -0.045128
C     -1.987626    1.431895   -0.578579
C      1.685018    1.594183   -0.683560
C     -0.703967    2.178146   -0.838975
C     -2.398868   -0.841469    0.298288
C      2.649346   -0.468483    0.508571
C     -1.585653   -0.006657   -0.279214
C     -0.206386   -0.055337   -0.796936
C      0.318404    1.239375   -0.221653
H     -1.179936   -2.383258    1.244600
H     -2.903526   -2.707964    1.289625
H     -2.123391   -2.926763   -0.266801
H     -4.103740    0.440381    0.021582
H     -3.674870    0.047363    1.703942
H     -4.491102   -1.216542    0.751389
H      3.934970   -2.120260    0.849874
H      4.038340   -0.814660    2.142407
H      4.811921   -0.588712    0.562632
H     -0.680602    0.666944    1.633895
H     -0.227547    2.377102    1.541209
H      1.076763    1.215742    1.838166
H      1.803825   -2.383288    0.683460
H      0.874581   -1.158901    1.557986
H      0.082229   -2.194346   -0.759760
H      1.388299   -1.254326   -1.447086
H      3.699571    1.175431   -0.034142
H     -2.548796    1.860183    0.264464
H     -2.583464    1.369484   -1.513087
H      1.747744    1.471001   -1.763535
H      1.901065    2.632183   -0.394316
H     -0.707568    3.170227   -0.342831
H     -0.506600    2.249452   -1.936525
H     -0.308866    0.157754   -1.907417
