42

C     -3.817208    0.570049   -0.217993
C      0.860822   -0.894675    0.836303
C      2.185407   -0.865884    1.268338
C      1.420061    0.564795   -0.959926
C     -1.858419   -0.743656    0.331154
C      0.458912   -0.185263   -0.276518
C      3.124731   -0.122587    0.586136
C      2.721953    0.577880   -0.514404
C     -0.943393   -0.205981   -0.749753
N     -3.239177   -0.728512   -0.071375
O      4.426826   -0.121089    1.047426
O      3.648068    1.331271   -1.214294
O     -1.299196    1.122758   -1.047636
C     -0.427020    0.697505    0.613742
C      0.545385   -0.443826    0.808013
C     -1.626481    0.320994   -0.139087
C      1.316585   -0.753301   -0.405185
O      0.232259    1.786091    0.069909
O     -0.063765   -1.549465    1.346768
O     -2.303640   -0.658231    0.268946
O     -2.092721    0.956761   -1.281562
O      1.352041   -1.937360   -0.824346
O      2.021911    0.190429   -1.133705
H     -3.187428    1.303711    0.322379
H     -4.837092    0.537813    0.248550
H     -3.912770    0.836281   -1.292328
H      0.187725   -1.493300    1.416137
H      2.477388   -1.421880    2.132971
H      1.079594    1.099645   -1.812837
H     -1.738075   -0.085348    1.214838
H     -1.616507   -1.808253    0.563924
H     -0.982082   -0.831558   -1.670434
H     -3.405249   -1.374285   -0.861761
H      5.201656    0.370595    0.662790
H      4.616775    1.416067   -0.985630
H     -1.573322    1.151406   -2.009664
H     -0.758397    1.000150    1.637781
H      1.290049   -0.078562    1.573663
H     -0.264644    2.138753   -0.713358
H      0.528675   -2.136981    1.870423
H     -2.602246    0.479559   -2.014665
H      2.852009   -0.012514   -1.677337
