44

C      0.388163    0.547087   -2.659068
C     -4.015967    0.326661    1.036740
C     -2.775611    2.269003    1.490315
C      2.760796   -3.402005    0.773038
C      1.950213   -4.285197    1.424902
C      3.630938    2.063527    0.252781
C      2.831567    2.902044    0.997552
C      2.273023   -2.356777    0.071961
C      3.040886    1.114607   -0.552539
C      0.599658   -4.072650    1.343129
C     -2.162989   -0.149068   -1.233940
C      1.464716    2.754013    0.903849
C     -2.362943    1.113357   -0.492896
C      1.054175   -0.027436   -1.475628
C      0.879456   -2.085323   -0.048212
C      1.671365    0.977448   -0.636659
C      0.077497   -2.994344    0.620877
C     -1.096880   -1.019860   -0.696222
C      0.246072   -1.076729   -0.719498
N      0.951395    1.815029    0.105171
N     -2.696684    0.918937    0.909294
S     -1.525846   -2.435940    0.307490
H     -0.050413   -0.268001   -3.295381
H      1.206729    0.944192   -3.389880
H     -0.241500    1.412926   -2.540319
H     -3.975605   -0.780019    1.029911
H     -4.563591    0.715405    1.918933
H     -4.593895    0.663475    0.143818
H     -3.253012    2.902275    0.709731
H     -1.724824    2.577951    1.673790
H     -3.375439    2.255509    2.419601
H      3.857336   -3.534654    0.811870
H      2.330773   -5.122558    1.987044
H      4.700628    2.193953    0.338931
H      3.273417    3.668730    1.649053
H      2.992793   -1.715489   -0.416917
H      3.687529    0.457495   -1.137585
H     -0.148876   -4.694443    1.810057
H     -2.014692    0.014132   -2.283799
H     -3.150620   -0.748731   -1.140732
H      0.843414    3.425395    1.499936
H     -1.598091    1.843797   -0.696738
H     -3.322435    1.566312   -0.936279
H      1.937374   -0.674036   -1.877486
