31

C      2.446489   -0.386980   -0.543878
C      2.481338    0.745447    1.547208
C      3.825813   -0.265025   -0.618408
C      3.862433    0.887535    1.509603
C     -3.995196    0.841782   -1.461482
C     -2.646913    1.126397   -1.396554
C     -3.729062   -0.908297    0.095752
C     -0.144817   -1.433302    0.685687
C      1.786878    0.120834    0.540956
C      4.504916    0.368990    0.408613
C     -4.561521   -0.173459   -0.722901
C     -1.813766    0.391286   -0.577512
C      0.338774    0.001533    0.635387
C     -2.368141   -0.630464    0.169365
C     -0.382940    0.658362   -0.478774
O      5.892786    0.498892    0.346949
O     -5.922875   -0.477310   -0.774370
O      0.125211    1.410460   -1.327500
O     -1.527331   -1.382474    1.004609
H      1.951565   -0.890910   -1.369945
H      1.992498    1.161406    2.424602
H      4.353186   -0.657598   -1.460856
H      4.436629    1.373436    2.284987
H     -4.635477    1.425794   -2.107243
H     -2.178449    1.919391   -1.967478
H     -4.130537   -1.720908    0.698776
H     -0.075575   -1.853035   -0.347753
H      0.405554   -2.038707    1.403655
H     -0.042002    0.471467    1.589301
H      6.278141    1.311695   -0.088733
H     -6.527608    0.012193   -0.102066
