52

C     -1.268400   -0.586198    1.820380
C      7.709674   -0.114536   -1.818466
C     -6.850653    0.979955   -1.239388
C     -6.252980    0.019638    0.930143
C     -3.645055    0.727018    0.498538
C     -2.309849    1.370239    0.560699
C      3.654228    2.013914   -0.629131
C      2.569650    2.164686    0.131146
C     -4.474730    0.863110   -0.524552
C     -0.303905    0.188725   -0.226326
C      3.047550   -0.294646   -0.873455
C      2.591787   -1.357484    1.262571
C     -1.242820    0.306948    0.683208
C      6.516966    0.093861   -0.951141
C      4.206596    0.627369   -0.600050
C      2.022202    1.041705    0.895990
C      0.716677   -0.831661   -0.108349
C      1.594224   -2.457268    1.229933
C     -5.788232    0.183570   -0.499764
C      2.079187   -0.314139    0.291802
O      6.675433   -0.066003    0.286860
O      1.529205    1.280566    2.030274
O      1.811383   -3.611020    1.664531
O     -5.692442   -1.103127   -1.049286
O      5.277342    0.448785   -1.465883
O      0.426700   -1.967090    0.646359
H     -2.026719   -0.194029    2.562292
H     -1.664705   -1.620825    1.600190
H     -0.352655   -0.677869    2.415366
H      8.092978   -1.155053   -1.763072
H      8.524020    0.532582   -1.403848
H      7.505976    0.169979   -2.870884
H     -7.737734    1.148589   -0.611747
H     -7.135391    0.438901   -2.153070
H     -6.413662    1.956784   -1.576363
H     -7.359044   -0.085417    0.953589
H     -5.848959   -0.895734    1.408307
H     -6.010968    0.903457    1.551573
H     -3.974176    0.109439    1.326657
H     -2.149566    1.976284   -0.365637
H     -2.285725    2.018968    1.459797
H      4.049038    2.827246   -1.181838
H      2.068440    3.138417    0.196102
H     -4.148988    1.483272   -1.360562
H     -0.287216    0.866094   -1.085928
H      3.366863   -1.321978   -1.121110
H      2.503236    0.097450   -1.747530
H      2.741008   -0.950624    2.278813
H      3.563538   -1.794014    0.952410
H      4.490511    0.452220    0.478783
H      0.859561   -1.240496   -1.160948
H     -4.969396   -1.095599   -1.727984
