31

C     -2.604953    1.201746    0.308229
C     -2.419527   -1.081071   -0.187724
C     -3.961886    1.162143    0.127786
C     -3.787634   -1.131573   -0.372056
C      4.081155    0.182408   -1.673977
C      2.699860    0.122748   -1.809406
C      3.785666   -0.089591    0.712193
C      0.173296   -0.627785    1.488239
C     -1.794639    0.097699    0.159414
C     -4.572924   -0.023170   -0.219089
C      4.592956    0.072694   -0.395680
C      1.888652   -0.040108   -0.698025
C     -0.360149    0.240499    0.373159
C      2.416475   -0.148017    0.571283
C      0.440365   -0.102102   -0.842764
O     -5.962460   -0.059054   -0.402805
O      5.979988    0.131298   -0.247429
O     -0.044046   -0.426025   -1.933921
O      1.546029   -0.308047    1.625977
H     -2.174792    2.174017    0.583778
H     -1.815593   -1.956902   -0.310689
H     -4.574955    2.065338    0.255825
H     -4.266910   -2.077364   -0.647786
H      4.672623    0.308936   -2.556766
H      2.216632    0.199499   -2.767543
H      4.182224   -0.174559    1.702256
H     -0.020246   -1.691996    1.340760
H     -0.301777   -0.343196    2.465787
H     -0.110703    1.284837    0.642282
H     -6.500264    0.787873   -0.278058
H      6.597538    0.248827   -1.033236
