34

C     -4.423783    1.334421   -1.265367
C     -3.965568   -0.924452   -0.774826
C      5.313076    0.099694   -0.421640
C      4.676220   -1.101501   -0.463429
C     -0.691037    0.176548    1.531673
C      3.163405    1.191157   -0.099005
C      1.186305   -1.716331    0.050780
C     -2.541146    0.770881    0.002819
C     -1.345095   -0.131160    0.233886
C      4.559467    1.254347   -0.234795
C      0.059460    0.565198    0.266837
C      2.522323   -0.003083   -0.136121
C      1.215299   -0.360657    0.097963
C      3.269022   -1.122635   -0.313777
F      5.133861    2.479431   -0.157092
N      2.440103   -2.179265   -0.203184
N     -3.323046    0.370485   -1.169667
H     -4.350562    1.882395   -2.200198
H     -4.480659    1.975167   -0.390007
H     -5.403855    0.761491   -1.299378
H     -4.901678   -0.970506   -1.341191
H     -3.323067   -1.765975   -1.039243
H     -4.221636   -0.866826    0.317929
H      6.372695    0.198409   -0.526542
H      5.272179   -1.982596   -0.587373
H     -0.280759   -0.630728    2.182498
H     -1.061312    1.036445    2.167651
H      2.546116    2.089984    0.032132
H      0.345645   -2.414077    0.163605
H     -3.138611    0.952132    0.904810
H     -2.108454    1.770809   -0.307302
H     -1.315735   -1.129361   -0.183738
H      0.091679    1.568017   -0.113687
H      2.709149   -3.177859   -0.290240
