56

C      5.785602   -1.560445   -0.201309
C     -2.730241    3.949219    0.141176
C     -1.580557    4.046504   -0.810920
C     -3.462590    2.654473   -0.211260
C     -1.379090   -2.170546    2.289138
C     -0.838950   -1.004850    1.814781
C     -1.960808   -3.062383    1.398677
C     -0.678267    2.864963   -0.844545
C     -2.576956    1.506971    0.130300
C      3.470142   -2.046501   -0.406786
C      4.250328    0.005630    0.561049
C      2.059464   -1.516529   -0.171407
C      2.898457    0.667762    0.461813
C     -1.419691   -1.553462   -0.389708
C      0.911439    0.512998   -0.878175
C     -0.836808   -0.650093    0.467582
C     -1.973638   -2.740570    0.064973
C     -0.259722    0.623030    0.014014
C     -1.309635    1.532619   -0.647124
C     -3.908160   -3.533145   -1.200231
F     -4.689123   -3.712175   -0.076656
F     -4.205118   -4.504462   -2.127260
F     -4.181114   -2.275618   -1.709719
N      4.456148   -1.012702   -0.421849
N      2.073036   -0.126982   -0.403160
O     -1.586092    0.910793   -1.888596
O     -2.549154   -3.612544   -0.852195
H      6.407513   -1.416796   -1.104383
H      5.713523   -2.644471    0.016003
H      6.323924   -1.052546    0.632010
H     -2.360366    3.929980    1.187574
H     -3.399620    4.807987   -0.014790
H     -1.941069    4.272987   -1.838089
H     -0.963261    4.925936   -0.501667
H     -4.429881    2.613227    0.328048
H     -3.628384    2.680336   -1.310815
H     -1.367734   -2.421743    3.333022
H     -0.378434   -0.295778    2.501964
H     -2.395117   -3.988457    1.738214
H      0.184067    2.958847   -0.140303
H     -0.192882    2.856504   -1.865966
H     -2.372503    1.467544    1.221546
H     -3.130012    0.569930   -0.139832
H      3.708008   -2.875625    0.291438
H      3.463087   -2.507668   -1.420771
H      5.042376    0.783304    0.400647
H      4.439012   -0.403185    1.583614
H      1.767508   -1.798344    0.870444
H      1.345599   -1.998416   -0.871643
H      3.029554    1.665135   -0.055132
H      2.450456    0.833720    1.450494
H     -1.462563   -1.366088   -1.451828
H      0.578965   -0.048922   -1.802066
H      1.212881    1.513085   -1.287998
H      0.050020    1.209725    0.926084
H     -1.473570    1.537837   -2.643092
