54

C     -4.325886    1.819608   -2.916318
C     -6.389756   -1.532521    1.303356
C     -6.525174   -0.240019    0.822392
C     -5.129280   -2.062093    1.532724
C     -5.367703    0.519987    0.574150
C     -4.000159   -1.278615    1.275847
C      5.350473   -1.090468   -1.266160
C      5.199279    0.168596    0.737979
C      6.687201   -0.769318   -1.373348
C      6.544489    0.483884    0.615344
C      2.425011   -0.645025    1.057560
C      2.461213   -0.474722   -1.428345
C      0.930345   -0.922878    0.806318
C      1.392768    0.538217   -1.053625
C     -2.469444    1.667898    1.670592
C     -0.336723    1.026654    0.465523
C      4.593859   -0.614626   -0.192437
C     -4.117483    0.000957    0.800486
C     -1.631921    0.567181    1.024241
C      7.317443    0.032175   -0.425062
C     -3.057287    1.551950   -0.825761
C      3.151724   -1.001726   -0.189818
C     -2.948309    0.902762    0.488087
Cl     9.032160    0.433005   -0.551675
N      0.430536   -0.010601   -0.160190
O     -2.251453    2.378504   -1.320193
O      3.148531   -2.405687   -0.290772
O     -4.174913    1.228255   -1.633513
H     -5.169388    2.515167   -2.978802
H     -3.347137    2.285773   -3.193621
H     -4.505297    0.998879   -3.641769
H     -7.290134   -2.107782    1.477575
H     -7.481373    0.185481    0.628357
H     -5.054350   -3.068858    1.900703
H     -5.563139    1.519270    0.196036
H     -3.060089   -1.707694    1.472204
H      4.908684   -1.719738   -2.040254
H      4.615186    0.538698    1.573043
H      7.300678   -1.126031   -2.187060
H      6.992818    1.100391    1.369256
H      2.577856    0.372947    1.417441
H      2.718462   -1.342472    1.879058
H      3.222580    0.041671   -2.045037
H      2.011095   -1.265825   -2.047143
H      0.377606   -0.835879    1.765405
H      0.893998   -1.955989    0.444176
H      1.868022    1.465605   -0.665564
H      0.891546    0.812627   -2.001288
H     -2.185533    2.719808    1.475838
H     -2.847464    1.420005    2.658103
H      0.254969    1.435487    1.376225
H     -0.456942    1.929231   -0.143278
H     -1.558010   -0.411153    1.572547
H      3.945813   -2.760323    0.190465
