59

C     -2.026990    2.067804   -1.109404
C      7.704479    0.623544   -0.200444
C      7.019660    1.834548   -0.092985
C      6.982344   -0.506161   -0.468817
C     -5.400675    1.413382    0.314216
C      2.939130    0.073246    0.617256
C      5.659096    1.852366   -0.256698
C      5.598816   -0.492098   -0.636568
C      3.409932    0.781638   -0.591904
C     -4.079358    1.076371    0.505784
C     -6.104036    0.731690   -0.677261
C      1.488685    0.035178    0.940070
C     -4.152202   -0.555101   -1.206163
C     -0.303121   -2.389640    1.095255
C     -1.820309   -0.405253    1.548750
C     -1.471273   -1.324026   -0.715300
C      0.080720    0.690298   -0.906883
C     -1.268979    1.119946   -0.288222
C      4.929916    0.708122   -0.528088
C     -3.449374    0.101652   -0.239721
C     -1.418537   -1.800042    1.937070
C     -0.055166   -1.564697   -0.132538
C     -5.492298   -0.237104   -1.428264
C     -2.010830   -0.162763    0.092849
N     -2.578602   -2.634586    1.964541
N      0.541564   -0.340726    0.029168
O     -6.192193   -0.894015   -2.400542
H     -2.883251    1.625215   -1.665852
H     -2.405086    2.948905   -0.505103
H     -1.360804    2.533999   -1.860107
H      8.770765    0.617372   -0.073735
H      7.565951    2.741097    0.113758
H      7.524684   -1.437403   -0.543522
H     -5.876848    2.169622    0.914118
H      3.412718   -0.944895    0.625285
H      3.425946    0.629835    1.509037
H      5.125952    2.783786   -0.170625
H      5.049295   -1.396160   -0.841867
H      3.141650    1.816638   -0.717450
H      3.129625    0.226238   -1.530369
H     -3.532904    1.599778    1.274147
H     -7.155425    1.024446   -0.796769
H      1.390966   -0.426658    1.968627
H      1.246130    1.140340    1.217508
H     -3.633924   -1.312847   -1.767780
H     -0.669979   -3.378588    0.740043
H      0.621761   -2.602091    1.665261
H     -1.161813    0.326616    2.069807
H     -2.824604   -0.248896    2.037668
H     -2.071137   -2.220081   -0.483724
H     -1.474751   -1.136019   -1.777453
H      0.763486    1.530304   -0.876682
H     -0.082400    0.288339   -1.898898
H     -0.952474    1.661402    0.655849
H     -1.003119   -1.750362    2.972114
H      0.473431   -2.175656   -0.886372
H     -2.458601   -3.570185    1.512458
H     -3.471773   -2.166049    1.763440
H     -7.153866   -0.701616   -2.610392
