25

C     -1.321301   -1.833715   -1.108608
C     -0.413773    1.692689   -1.137033
C     -1.389370    0.669727    0.846601
C      0.948626    1.522934   -0.517048
C     -0.618228   -0.533233    1.359036
C     -1.278225    0.525213   -0.641954
C      1.293532    0.406797    0.094712
C      0.363493   -0.742624    0.221849
C      2.625034    0.298538    0.662028
N     -0.519763   -0.663692   -0.921722
O      3.454974    1.245340    0.582386
O      3.056613   -0.847505    1.320471
H     -0.658325   -2.709930   -1.116349
H     -2.153681   -1.918637   -0.383178
H     -1.784166   -1.766040   -2.114832
H     -0.293847    1.539569   -2.235011
H     -0.853085    2.661848   -0.909055
H     -0.878417    1.565199    1.237009
H     -2.432217    0.680106    1.217224
H      1.603803    2.377168   -0.615512
H     -1.260782   -1.423445    1.395586
H     -0.129214   -0.350040    2.323413
H     -2.242318    0.495047   -1.161180
H      0.857313   -1.702324    0.347256
H      4.023325   -1.188989    1.253912
