59

C      2.126714   -0.285467    2.607685
C     -7.444205    0.183044   -0.926040
C     -6.554898   -0.867510   -0.898537
C     -7.009530    1.447126   -0.589464
C      5.772202    0.247255   -0.688597
C     -2.594282    1.309827   -0.964566
C     -5.238275   -0.670496   -0.539950
C     -5.706424    1.658379   -0.231500
C     -3.444497    0.873892    0.225525
C      4.527254   -0.377592   -0.690914
C      6.032268    1.365183    0.089221
C     -1.232173    1.597932   -0.359913
C      3.768938    1.232934    0.869942
C     -0.217923   -1.854893   -0.695474
C      2.259894   -2.023924   -0.068940
C      1.402146   -0.002371   -1.085652
C      0.422388    0.858395    1.102909
C      1.381967   -0.288063    1.337742
C     -4.815279    0.600068   -0.202098
C      3.509660    0.113921    0.094827
C      1.015991   -2.670707   -0.600704
C     -0.024095   -0.393620   -0.891762
C      5.002447    1.838605    0.865882
C      2.197661   -0.555101    0.080970
N      1.299926   -3.347159   -1.869131
N     -0.642510    0.368298    0.215175
O      5.212536    2.960185    1.665018
H      3.228049   -0.452332    2.540741
H      1.851148    0.598493    3.221242
H      1.815193   -1.147449    3.293004
H     -8.467725    0.028762   -1.200498
H     -6.870890   -1.881291   -1.157784
H     -7.698642    2.285825   -0.604377
H      6.584382   -0.129112   -1.293996
H     -2.951001    2.227593   -1.437091
H     -2.496595    0.509940   -1.703241
H     -4.501365   -1.473164   -0.515735
H     -5.343782    2.655140    0.034459
H     -2.930185   -0.022386    0.647297
H     -3.468374    1.708359    0.986199
H      4.433619   -1.248035   -1.358183
H      6.997796    1.865326    0.106610
H     -1.369776    2.383571    0.384281
H     -0.521364    1.989326   -1.117415
H      3.017339    1.662579    1.477976
H     -0.759609   -2.224191   -1.634191
H     -0.993607   -2.082928    0.085616
H      3.098784   -2.437399   -0.656503
H      2.480881   -2.415367    0.982470
H      1.785468   -0.416405   -2.052898
H      1.486337    1.091418   -1.078062
H      0.823025    1.756955    0.666860
H     -0.032188    1.092495    2.096239
H      0.656752   -1.166856    1.444017
H      0.765474   -3.517710    0.111030
H     -0.556209   -0.025168   -1.818140
H      0.602276   -4.125407   -1.953551
H      2.231286   -3.845371   -1.791361
H      6.095605    3.436647    1.691207
