47

C      4.450478    2.647348   -0.154145
C      4.370642    1.738600    0.875199
C      3.786314    2.357997   -1.326486
C      1.613406   -2.059720    1.966287
C      3.646393    0.572198    0.710714
C      3.062339    1.186353   -1.465840
C      0.816220   -0.970724    1.385446
C      2.734670   -2.608269    1.134855
C     -2.202655    0.512908    0.501185
C     -3.055454    0.427295   -1.646651
C     -4.511458    0.300499    0.249664
C     -0.565935    0.673075   -1.386990
C     -1.925668    0.527418   -0.820667
C      2.962676    0.234528   -0.439128
C     -3.436507    0.401524    1.107849
C     -4.334185    0.317769   -1.132330
C      0.731768   -0.829616   -0.078231
C      2.166343   -1.007423   -0.596793
C     -3.646608    0.377975    2.581470
C     -5.566454    0.225487   -1.996462
F     -4.796462    1.061224    2.997186
F     -2.521635    0.982313    3.162714
F     -3.654832   -0.948269    2.951269
F     -5.201624    0.010452   -3.277428
F     -6.444890   -0.689106   -1.552994
F     -6.234154    1.463602   -1.971083
N      2.791158   -2.170459   -0.188582
O      0.419165    0.457912   -0.499513
H      5.014164    3.556622   -0.020847
H      4.877476    1.977236    1.817154
H      3.818257    3.034811   -2.160791
H      0.962415   -2.877774    2.350031
H      2.128393   -1.653570    2.891747
H      3.639703   -0.097589    1.538612
H      2.565002    0.959205   -2.361453
H      1.019596    0.038640    1.830310
H     -0.259451   -1.189945    1.757450
H      3.737174   -2.500049    1.592867
H      2.607244   -3.739075    1.134786
H     -1.383370    0.680397    1.194893
H     -2.937891    0.439882   -2.731680
H     -5.510518    0.231125    0.653785
H     -0.512373   -0.193483   -2.144366
H     -0.480607    1.618604   -1.987338
H      0.119094   -1.610123   -0.608235
H      2.013432   -1.062384   -1.722494
H      3.129207   -2.805421   -0.901534
