71

C      2.090416   -1.326861    1.620647
C     -7.522025   -0.066968    0.038601
C     -6.190497   -0.376200    1.924259
C      6.338820   -1.027260    0.287554
C      4.983103   -0.934157    0.453166
C      2.544398    1.349270    1.543069
C      1.028106    1.121831    1.675849
C      0.543387   -1.268160   -1.629034
C      8.463364   -0.066527   -0.325850
C      1.806630   -1.371054   -0.866660
C     -2.565261   -1.294618    0.723827
C     -1.092806   -1.243309    1.136911
C      9.168586    1.027888   -0.777415
C      5.132669    1.305999   -0.283857
C     -1.796015   -0.668680   -1.959149
C     -3.949846    0.703143    0.693136
C      7.226095    2.324438   -0.911568
C      7.086470    0.032991   -0.158999
C      4.338814    0.240640    0.171277
C      6.487124    1.237297   -0.457444
C     -0.573630   -0.750635   -1.174725
C      2.937645    0.539940    0.296127
C     -2.815892   -0.043874   -1.395377
C     -5.140315    0.145699   -0.097321
C      0.714151    0.394006    0.437998
C     -3.926773    0.465416   -2.207729
C     -5.138353    0.835650   -1.421754
C      1.929601   -0.543883    0.340842
C     -2.726271    0.083880    0.079984
C     -0.586368   -0.209476    0.210142
N      8.544439    2.182991   -1.056575
N     -6.317286    0.412526    0.689676
O     -3.518184    1.614616   -2.924619
O     -6.312679    0.608576   -2.149312
O     -1.567369    0.777700    0.348811
H      2.863998   -0.944979    2.307219
H      1.156780   -1.282623    2.262121
H      2.194351   -2.422651    1.416444
H     -7.969196    0.835123   -0.471788
H     -7.342397   -0.883019   -0.670207
H     -8.277387   -0.391375    0.779924
H     -7.213437   -0.715162    2.259222
H     -5.621846   -1.308164    1.755983
H     -5.772175    0.221079    2.750800
H      6.821056   -1.971623    0.519860
H      4.383477   -1.773749    0.793633
H      3.071209    1.004575    2.421134
H      2.761107    2.418321    1.328324
H      0.552866    2.135849    1.621528
H      0.751065    0.674727    2.623753
H      0.494343   -1.644601   -2.668745
H      8.920968   -1.009556   -0.090431
H      1.885924   -2.455728   -0.553986
H      2.621295   -1.181624   -1.629523
H     -3.233595   -1.449282    1.571040
H     -2.726069   -2.054191   -0.074100
H     -0.652525   -2.242931    1.052540
H     -1.157503   -0.863723    2.200826
H     10.251468    0.964462   -0.913389
H      4.672583    2.275738   -0.527522
H     -1.862781   -1.103182   -2.964244
H     -4.007648    0.460660    1.756429
H     -3.947365    1.820815    0.609075
H      6.718153    3.245719   -1.132737
H      2.619965    1.225661   -0.564814
H     -4.946266   -0.944604   -0.227920
H      0.878039    1.119830   -0.419316
H     -4.254062   -0.312850   -2.957332
H     -5.133791    1.945190   -1.209196
H     -2.552101    1.519644   -3.179613
H     -6.572753    1.423128   -2.649478
