41

C     -0.056508   -2.793998   -0.051524
C     -0.435471   -0.121703   -1.501674
C      4.186703    2.143259    0.572326
C     -5.042695    0.587991    0.658278
C      3.523531    1.942791   -0.617365
C      4.126051    1.142736    1.516128
C     -4.318647    1.478722   -0.077914
C     -4.376200   -0.324815    1.441770
C      2.816957    0.760471   -0.847230
C      3.428090   -0.023734    1.288155
C     -2.943249    1.438320   -0.015601
C     -3.002430   -0.367310    1.505864
C      1.995656   -1.491696   -0.166097
C     -0.774842    0.515892    0.806186
C      0.559332   -1.446211    0.282612
C      2.749971   -0.245199    0.089103
C     -2.273325    0.527105    0.766565
N     -0.185316   -0.342610   -0.143137
Cl     0.691024    0.000000    0.000000
H     -0.870276   -2.710402   -0.805319
H      0.688903   -3.498845   -0.493900
H     -0.460600   -3.317779    0.839437
H      0.178476   -0.786855   -2.132430
H     -0.083812    0.921271   -1.757540
H     -1.504382   -0.140255   -1.805637
H      4.747986    3.045316    0.794642
H     -6.142129    0.600483    0.625356
H      3.566254    2.721521   -1.361571
H      4.646961    1.304138    2.446426
H     -4.824657    2.212759   -0.707713
H     -4.957448   -1.051081    2.041631
H      2.321362    0.669743   -1.806366
H      3.381038   -0.806938    2.026547
H     -2.374665    2.169604   -0.620213
H     -2.491761   -1.112058    2.143956
H      2.538956   -2.352843    0.320194
H      1.986251   -1.760602   -1.251424
H     -0.462779    0.361466    1.844789
H     -0.462212    1.573066    0.555432
H      0.600927   -1.421720    1.412945
H     -0.691024    0.000000    0.000000
