22

C     -2.734975   -0.953888    0.185282
C     -1.365237   -0.966200   -0.070799
C     -3.329916    0.242468    0.505823
C     -1.224530    1.365843    0.314611
C      1.643026   -0.725995    0.590698
C     -0.613983    0.182386   -0.007507
C     -2.590268    1.421937    0.576379
C      0.834803    0.145257   -0.312360
C      3.078498   -0.688732    0.197466
Cl    -3.358736    2.949023    0.985621
O      1.410712    1.410758   -0.394645
O      3.928548   -0.112739    0.947646
O      3.566036   -1.260085   -0.981263
H     -3.350290   -1.836151    0.139130
H     -0.905290   -1.932787   -0.327166
H     -4.409072    0.300766    0.715515
H     -0.692542    2.304526    0.385989
H      1.567966   -0.485212    1.659596
H      1.325024   -1.786534    0.463170
H      0.947795   -0.253833   -1.383944
H      1.827223    1.651953    0.483707
H      4.445206   -0.972761   -1.410919
