20

C     -1.328031   -0.847703   -0.545708
C      1.519983   -0.933023   -0.584829
C      0.796514   -0.010815    0.396135
C     -1.223027    1.285712    0.720602
C     -0.520300    0.384964   -0.227888
O      2.724245   -1.325946    0.030849
O      0.549090   -0.703362    1.565820
O     -1.481656    0.838633    1.866286
O     -1.607022    2.582556    0.415630
O     -0.345991    1.088612   -1.413466
H     -0.930901   -1.316054   -1.454225
H     -2.363895   -0.512123   -0.763577
H     -1.278112   -1.600691    0.269170
H      1.788601   -0.418440   -1.509304
H      0.929196   -1.826848   -0.790050
H      1.416251    0.865936    0.612581
H      3.171122   -0.535169    0.461505
H      1.229874   -1.388275    1.781498
H     -1.895626    3.258232    1.119914
H     -1.150313    1.113805   -1.950946
