30

C      4.789571    0.073356    0.930939
C      4.361493   -1.207016    0.599854
C      4.032874    1.163314    0.588743
C     -4.426571    1.440235    0.146112
C     -5.068623    0.422926    0.774392
C      3.172932   -1.320850   -0.069910
C      2.828448    1.003097   -0.093288
C     -3.110487    1.302106   -0.274190
C     -4.404715   -0.742974    0.990309
C      0.062158    0.464193   -1.095949
C      2.379915   -0.231757   -0.432307
C      1.127092   -0.546124   -1.157336
C     -2.388175    0.114578   -0.071098
C     -3.095031   -0.853448    0.561709
C     -0.636775   -1.460351   -0.107741
N      0.548451   -1.683363   -0.483663
N     -1.060642   -0.198568   -0.437315
S     -1.988616   -2.264731    0.728246
H      5.729868    0.183093    1.462290
H      4.972859   -2.058637    0.878367
H      4.353673    2.143312    0.838342
H     -4.982208    2.359277   -0.012295
H     -6.097998    0.522917    1.106110
H      2.833879   -2.324583   -0.331372
H      2.231192    1.860051   -0.366965
H     -2.670257    2.158878   -0.767070
H     -4.867440   -1.582550    1.484630
H      0.287273    1.396444   -0.535592
H     -0.291307    0.691412   -2.131854
H      1.377169   -0.824237   -2.207447
