22

C      2.812347    0.957554    0.133841
C      1.440016    1.158394    0.077028
C      3.310181   -0.306567    0.033269
C      1.100667   -1.153056   -0.177203
C     -1.767108   -0.788749    0.006217
C      0.554256    0.111093   -0.079366
C      2.465130   -1.372492   -0.122725
C     -0.877217    0.392108   -0.131407
C     -3.179492   -0.328401   -0.068136
Cl     3.112853   -3.004115   -0.252234
O     -1.175525    1.303529    0.896825
O     -4.148357   -1.140145    0.023035
O     -3.521520    1.014500   -0.241421
H      3.515313    1.784546    0.257543
H      1.105201    2.190600    0.163182
H      4.394587   -0.479129    0.076748
H      0.466739   -2.001531   -0.299182
H     -1.624474   -1.468313   -0.883718
H     -1.620213   -1.395325    0.892434
H     -1.100781    0.893042   -1.095121
H     -0.929289    2.211630    0.540989
H     -4.333311    1.420827    0.249401
