57

C      6.626372   -2.583273   -1.219846
C      6.030396   -0.134201   -1.156138
C      2.170447    2.437872    0.679090
C     -7.152458    0.820272    0.091669
C     -3.738303   -3.111651   -0.972464
C      3.321488   -1.187933    0.180922
C      4.506697   -1.897022   -0.307319
C      3.427037    0.276517    0.170682
C      1.098209    0.314052    1.031896
C     -1.520526   -0.648921   -1.542672
C     -2.498613    0.212496    0.969951
C     -1.657425    2.441378    0.496554
C      5.616381   -1.506937   -0.840745
C      2.174912    0.960563    0.646683
C     -5.708143    0.961740   -0.281291
C     -2.914434   -0.960530   -1.115807
C     -3.410682    0.174086   -0.247400
C     -0.893103    0.473838   -0.831348
C     -0.146637    0.919404    1.505539
C     -1.151924    2.959581    1.817075
C     -1.251967    0.975214    0.499520
O     -5.370983    1.962091   -0.967439
O      0.029137    1.048644   -1.420075
O     -1.613878    3.847026    2.547095
O     -2.903186   -2.162638   -0.404169
O     -4.760252    0.026386    0.110720
O     -0.009390    2.203847    2.059554
H      7.477997   -2.474872   -0.514307
H      6.168718   -3.580441   -1.190655
H      7.011109   -2.309890   -2.224410
H      7.133093   -0.103615   -1.473975
H      5.535381    0.254858   -2.091987
H      6.012831    0.582420   -0.319207
H      2.350967    2.839694    1.706271
H      3.012582    2.811766    0.063013
H      1.261321    2.876477    0.220322
H     -7.678762    0.501454   -0.833575
H     -7.203770    0.058708    0.870892
H     -7.492605    1.821240    0.447302
H     -4.804128   -2.756168   -1.003416
H     -3.387231   -3.499788   -1.935325
H     -3.755475   -3.977854   -0.261682
H      3.070323   -1.617395    1.184904
H      2.478690   -1.489868   -0.524149
H      4.435324   -3.032319   -0.192937
H      4.161536    0.557706    0.992068
H      3.650795    0.692294   -0.797421
H      1.163290   -0.788422    0.985045
H     -1.496359   -0.449923   -2.646022
H     -0.840044   -1.537448   -1.410779
H     -2.990307    0.722630    1.811613
H     -2.213431   -0.804134    1.303210
H     -2.752511    2.576634    0.519867
H     -1.205979    2.967998   -0.343817
H     -3.592788   -1.033064   -1.982202
H     -3.292402    1.102704   -0.845899
H     -0.517335    0.266714    2.351659
