61

C      2.366527   -0.317585    2.810088
C     -2.994249   -1.153790   -2.347185
C     -2.570146   -2.288114   -0.314384
C      2.428356    3.279068   -2.481079
C      7.290313   -1.805590   -0.609282
C      4.387453   -1.077321    1.578229
C     -0.699440    0.127429   -1.369642
C      5.056861   -0.083465   -0.422323
C      1.614444    0.964847   -1.925360
C      3.283879   -0.215809    1.656951
C      0.478991    0.701714   -0.961047
C      5.287944   -1.029348    0.546856
C     -1.762151   -0.076711   -0.479370
C      3.967908    0.766165   -0.344493
C      3.044392    0.740993    0.681319
C      0.592203    1.072410    0.347937
C     -1.646832    0.306521    0.834683
C     -4.083239   -0.169801    1.135087
C     -4.157718   -0.547322   -0.191901
C     -5.444674   -0.735525   -0.666983
C     -6.479750   -0.210232    1.406942
C     -0.441120    0.890908    1.255757
C     -2.807595    0.275675    1.723199
C     -5.193615   -0.001128    1.939810
C     -6.568130   -0.572505    0.108524
C      1.880376    1.677858    0.743272
C     -2.953898   -0.840622   -0.904973
C      2.420289    2.157902   -1.470983
Cl    -5.677288   -1.151928   -2.315338
Cl    -7.922550   -0.011219    2.382319
O     -0.317551    1.269423    2.550788
O     -2.690960    0.611113    2.899769
O     -5.195825    0.360845    3.256057
O     -7.841706   -0.781842   -0.440558
O      6.378610   -1.881554    0.469835
O      3.787411    1.708054   -1.360522
O      2.083407    2.677910   -0.246159
H      2.251784    0.691262    3.257334
H      1.442862   -0.841680    2.575999
H      2.877585   -0.944964    3.598190
H     -3.556114   -2.129526   -2.507823
H     -3.214204   -0.374472   -3.053452
H     -1.949117   -1.527771   -2.615526
H     -3.376678   -2.974950   -0.535977
H     -2.389647   -2.192236    0.747231
H     -1.623875   -2.528475   -0.828683
H      1.488636    3.890656   -2.361647
H      2.470853    2.894284   -3.522175
H      3.274846    3.960055   -2.256425
H      8.201413   -2.389442   -0.434233
H      7.607442   -0.734335   -0.774936
H      6.812104   -2.107348   -1.561976
H      4.547368   -1.813221    2.353808
H     -0.790957   -0.144108   -2.395141
H      5.758702   -0.021601   -1.257113
H      2.209335    0.046220   -1.989413
H      1.220434    1.203622   -2.935370
H      1.832345    2.190992    1.721633
H     -0.736160    1.311258    3.383484
H     -4.578777    0.575693    3.944373
H     -8.681109   -0.677338    0.076706
