73

C     -4.258638   -3.817686   -2.329960
C     -5.301541   -1.773244    3.660676
C     -6.051174   -2.501458    2.764588
C      0.417063   -1.158790   -2.207023
C      1.715544   -1.251736   -1.772296
C     -4.044142   -1.370558    3.291825
C     -0.531943   -0.482095   -1.453159
C     -5.524823   -2.805857    1.531610
C      3.477290   -0.787583   -0.144800
C      9.341851   -0.924008    2.313448
C      7.172362   -0.066250    2.866883
C     -2.183519   -1.155362    1.711772
C     10.165841   -1.611550    1.443985
C      3.946033   -0.280070    0.976225
C      5.838899    0.089816    2.530771
C     -2.395706    0.131958    0.920450
C     -1.840836    4.637881   -2.480588
C     -2.457797    3.920457   -3.619113
C      1.132404   -0.011247    0.141816
C      8.358783   -1.961523   -0.032749
C     -4.189103    4.057143   -1.634696
C     -2.442656    2.257687   -1.700712
C      2.091127   -0.663236   -0.563320
C     -3.521525   -1.695447    2.013317
C      8.015545   -0.744559    2.024224
C     -0.192821    0.108547   -0.258718
C      9.675487   -2.128232    0.275197
C      5.367155   -0.437761    1.351150
C     -4.242226   -2.410016    1.124042
C      7.528267   -1.271501    0.838208
C     -1.143026    0.852622    0.572899
C     -4.985651    5.052306   -2.324356
C     -3.735762   -2.808043   -0.156605
C     -2.907632    3.633260   -2.234385
Cl    10.747315   -2.995926   -0.808299
N      6.235105   -1.086722    0.573265
O     -6.131191    5.309634   -1.815702
O     -4.685654    5.770233   -3.459526
O     -2.599348   -2.719566   -0.617567
O     -4.660801   -3.399035   -1.059219
S     -1.596417    2.466629   -0.120460
H     -5.073731   -4.493763   -2.720090
H     -4.208302   -2.982348   -3.054388
H     -3.345475   -4.433872   -2.329719
H     -5.697933   -1.518342    4.649367
H     -7.043698   -2.827101    3.036459
H      0.108647   -1.608982   -3.141152
H      2.466956   -1.776392   -2.349743
H     -3.441055   -0.798058    3.982372
H     -1.543085   -0.444477   -1.825290
H     -6.110876   -3.385389    0.809204
H      4.187990   -1.323500   -0.770549
H      9.724031   -0.513441    3.239344
H      7.554342    0.336984    3.778533
H     -1.659091   -0.829762    2.661291
H     -1.524222   -1.781980    1.122089
H     11.225908   -1.742307    1.697956
H      3.301434    0.263230    1.646950
H      5.210825    0.628340    3.219179
H     -2.968756   -0.129494    0.013206
H     -3.035203    0.842105    1.499302
H     -0.821311    4.347211   -2.173096
H     -2.084586    5.690583   -2.253607
H     -3.158881    4.345581   -4.327490
H     -1.772359    3.173258   -4.130311
H      1.401872    0.453368    1.082886
H      7.964737   -2.365711   -0.951784
H     -4.840672    3.169142   -1.427516
H     -3.937607    4.494464   -0.614879
H     -1.747982    1.796333   -2.437782
H     -3.297619    1.592116   -1.577078
H     -0.627402    1.071123    1.569655
H     -4.809036    6.781969   -3.490369
