61

C     -3.593087    1.267030   -1.936338
C      6.766546    2.893729   -1.089355
C     -1.950284   -0.960886    0.187354
C     -0.503732   -1.331187   -0.196180
C     -2.298522   -1.503250    1.520287
C      0.496629   -0.778300    0.759415
C     -3.604555   -1.263843    2.120838
C      1.890201   -1.178536    0.337658
C     -4.806758   -1.784897    1.489691
C      2.189110   -0.632659   -1.022512
C     -5.196902   -1.271769    0.165835
C      3.575211   -1.014888   -1.429197
C     -5.372855    0.206393    0.228831
C      4.587633   -0.478620   -0.472459
C     -5.845738    0.820686   -1.039931
C      4.486283    1.026687   -0.425720
C     -4.940540    0.651770   -2.205444
C      6.518046    2.313460    0.250406
C      5.527465    1.504655    0.531064
C      7.276863    2.500587    1.490141
C      5.560022    1.112865    1.929247
O     -4.862090   -0.653979   -2.633230
O      8.298396    3.224265    1.572077
O      4.789763    0.356584    2.575931
O      6.661540    1.749123    2.502302
H     -2.820652    0.503402   -2.130076
H     -3.485494    1.666531   -0.912669
H     -3.419651    2.118615   -2.637096
H      7.367908    3.814774   -1.006468
H      7.279887    2.122429   -1.721999
H      5.767024    3.155500   -1.535250
H     -2.544018   -1.348739   -0.644277
H     -2.009455    0.168124    0.212191
H     -0.488962   -2.436024   -0.262650
H     -0.304989   -0.946347   -1.222407
H     -1.532155   -1.078929    2.278441
H     -1.998002   -2.618367    1.580399
H      0.341142   -1.071259    1.821341
H      0.497151    0.353833    0.719410
H     -3.601671   -1.601750    3.235181
H     -3.681549   -0.124229    2.297139
H      1.878719   -2.299952    0.280245
H      2.652288   -0.831044    1.065078
H     -5.702153   -1.716571    2.194595
H     -4.623261   -2.919769    1.347168
H      2.038650    0.471914   -1.025856
H      1.520589   -1.068588   -1.810652
H     -4.612888   -1.600113   -0.663300
H     -6.246413   -1.739088   -0.030120
H      3.725928   -0.601671   -2.466902
H      3.591727   -2.131380   -1.489583
H     -4.428780    0.717795    0.581127
H     -6.154791    0.487937    1.011905
H      4.554733   -0.916463    0.538214
H      5.591133   -0.793791   -0.872904
H     -6.109232    1.912226   -0.893584
H     -6.823787    0.317431   -1.315102
H      3.510449    1.321646    0.016497
H      4.623953    1.446727   -1.431096
H     -5.435135    1.233052   -3.063361
H     -4.566890   -0.742881   -3.577389
