49

C     -4.294093   -0.475739    1.158851
C      5.841480    2.712452    0.182301
C     -4.332043    1.953371   -0.538136
C     -2.909576    2.267613   -0.157756
C      1.924644   -3.139263   -1.311594
C     -0.568135   -0.560900    1.373361
C     -4.545327    0.562088   -1.033259
C      1.146864   -2.881452   -0.210330
C      2.968210   -2.309772   -1.641598
C      0.472656   -1.599978    1.731975
C      3.712556    0.985045    0.796776
C      2.671683    0.121905    1.076690
C     -1.971458    1.187393   -0.700005
C     -1.393097   -1.011604    0.170565
C      4.265852   -0.348773   -1.129253
C     -3.714494   -0.440116   -0.262414
C      1.369443   -1.795136    0.608022
C      3.217645   -1.219558   -0.848216
C      4.506305    0.736425   -0.316136
C      2.419712   -0.965965    0.271980
N     -2.360651   -0.051838   -0.162463
O      5.561950    1.585017   -0.627843
H     -3.956123    0.442543    1.692358
H     -3.856017   -1.325291    1.718973
H     -5.397431   -0.504519    1.112736
H      6.799783    3.168765   -0.161225
H      5.979984    2.433327    1.235822
H      5.045093    3.475905    0.086410
H     -4.676057    2.640428   -1.365282
H     -4.991638    2.203242    0.321070
H     -2.611858    3.235084   -0.622798
H     -2.749500    2.362988    0.926061
H      1.734327   -4.006950   -1.950286
H     -1.287610   -0.416116    2.238612
H     -0.162927    0.450144    1.204650
H     -4.345609    0.527823   -2.130014
H     -5.613640    0.304003   -0.842906
H      0.339736   -3.564209    0.004479
H      3.566608   -2.519562   -2.501606
H     -0.077329   -2.538797    1.942604
H      0.907892   -1.278786    2.675877
H      3.867851    1.820128    1.455794
H      2.040509    0.273551    1.936249
H     -2.003559    1.241692   -1.814403
H     -0.956184    1.462750   -0.335396
H     -0.705451   -1.299289   -0.652699
H     -1.924056   -1.937615    0.513646
H      4.903742   -0.509950   -1.986215
H     -3.860664   -1.452504   -0.714578
