35

C      3.585692   -0.709336   -0.365664
C      4.271990    1.603007   -0.363921
C     -4.518492   -1.307114   -0.908533
C     -3.389959   -1.776556   -1.473780
C     -3.118350   -0.197361    0.701088
C      0.115836    1.661591    1.675748
C     -5.517079    0.162768    0.782966
C      0.010240   -1.121954   -0.592425
C      2.042768    1.121080    0.129831
C     -4.370887   -0.489339    0.213823
C      1.364686    0.813199    1.429361
C     -0.095130    0.248644    1.559155
C     -1.998042   -0.664240    0.131185
C     -0.633617   -0.435944    0.389913
C     -2.121937   -1.489459   -1.011683
N     -6.394869    0.682613    1.231842
N     -0.890785   -1.740392   -1.413210
N      3.258814    0.589727   -0.166615
H      3.051395   -1.416938    0.350001
H      3.384953   -1.091929   -1.403544
H      4.706063   -0.930849   -0.238477
H      3.830585    2.627414   -0.379166
H      5.016784    1.461857    0.433252
H      4.776968    1.379944   -1.333919
H     -5.529712   -1.525398   -1.295931
H     -3.459141   -2.434330   -2.359268
H     -3.007250    0.440921    1.589436
H     -0.096547    2.422630    0.928632
H      0.038382    2.105528    2.727402
H      1.059305   -1.248976   -0.778600
H      2.136940    2.290880    0.059080
H      1.298232    0.978047   -0.724606
H      2.021889    0.674712    2.328624
H     -0.172524   -0.357764    2.523644
H     -0.657202   -2.326685   -2.239910
