95

C     -2.324821    4.195699    2.947414
C     -5.710085    0.697040    2.224921
C     -5.221605   -1.555329   -3.920255
C     -2.919692    2.617034   -5.350536
C      0.380851   -1.454353   -3.502212
C      4.433352    1.620770   -1.382141
C     -0.790766   -3.856925    2.091898
C     -0.306639   -1.461897    2.345125
C      1.955967   -3.048727    0.908447
C      6.589364   -2.077224    2.301582
C      3.315213    4.721162    2.052999
C      6.281257   -1.890378    0.970261
C      5.751526   -1.562946    3.257657
C      4.120890    3.758991    2.614046
C      2.332503    4.272889    1.169323
C      5.137446   -1.190682    0.571491
C      4.603769   -0.860963    2.871016
C      3.970627    2.422455    2.323946
C      2.174761    2.944713    0.873631
C     -1.404831   -3.415762   -0.581561
C      0.008142   -3.911493   -0.392971
C     -3.975364    2.435933    2.551763
C     -4.032184    0.542615   -4.598894
C     -1.978814    2.421109    1.193425
C     -3.640811    0.738321    0.868515
C     -3.422057   -0.488705   -2.530783
C     -2.336824    1.482588   -3.212489
C     -2.752534    2.993257    2.206267
C     -4.402135    1.306869    1.869920
C     -4.208509   -0.487034   -3.674824
C     -3.096547    1.523640   -4.362358
C      1.311214   -0.762431   -2.591264
C      3.268998    0.716035   -1.622082
C      4.307319   -0.681183    1.537831
C      2.994302    2.015338    1.450529
C     -2.429544    1.301112    0.535469
C     -2.488076    0.471516   -2.274673
C     -1.543449   -2.241624    0.316643
C      1.463369   -0.724177   -1.238687
C      0.476555   -1.484100   -0.402048
C      2.480089    0.045475   -0.768563
C     -0.789300   -1.093730   -0.301842
C     -0.485788   -2.579395    1.391648
C      0.637412   -2.723980    0.366575
P      2.809196    0.234044    1.078538
P     -1.421544    0.540582   -0.795626
S      2.649965    0.330409   -3.264841
H     -1.785763    3.888379    3.852197
H     -3.243489    4.762318    3.287015
H     -1.763664    4.916898    2.313084
H     -5.941621   -0.144662    1.556367
H     -5.588648    0.245075    3.248276
H     -6.529719    1.445737    2.289920
H     -5.612054   -1.860679   -2.927776
H     -4.724051   -2.453333   -4.364119
H     -6.007358   -1.143873   -4.585708
H     -2.548981    3.552010   -4.847541
H     -2.180444    2.306930   -6.135120
H     -3.844378    2.888735   -5.879755
H      0.415396   -0.995126   -4.501971
H      0.719765   -2.526625   -3.639288
H     -0.645937   -1.525702   -3.154290
H      5.205407    1.351142   -2.129331
H      4.853605    1.512914   -0.390343
H      4.085368    2.644890   -1.642775
H     -1.549925   -4.473810    1.585114
H     -1.202949   -3.613313    3.099947
H      0.140964   -4.452224    2.314854
H     -1.087826   -1.592185    3.145381
H      0.689100   -1.486704    2.778025
H     -0.570577   -0.517093    1.839854
H      2.004406   -4.163418    1.029600
H      2.092371   -2.657952    1.934398
H      2.740951   -2.750598    0.197613
H      7.461124   -2.611076    2.621634
H      3.415804    5.770034    2.271057
H      6.916524   -2.285455    0.213129
H      5.929624   -1.672028    4.311589
H      4.896971    4.080400    3.305229
H      1.709526    5.052573    0.733781
H      4.963908   -1.084650   -0.487559
H      3.934608   -0.450394    3.616567
H      4.645415    1.682226    2.798441
H      1.397336    2.672474    0.185228
H     -2.156519   -4.199531   -0.345329
H     -1.559537   -3.136467   -1.643094
H     -0.016389   -4.779322    0.268307
H      0.537497   -4.151702   -1.301418
H     -4.576609    2.881994    3.337502
H     -4.658426    0.518017   -5.481605
H     -1.046196    2.895691    0.975324
H     -4.042449   -0.140699    0.384262
H     -3.551709   -1.273654   -1.821402
H     -1.593414    2.275381   -3.041236
H     -2.499205   -1.998100    0.703739
