34

C     -4.024309    0.665696   -0.240355
C     -4.174738   -0.653373    0.479039
C      3.117077    1.365623    0.697258
C      3.545490   -0.932561    0.257679
C      4.434497    1.677952    0.483184
C      4.853714   -0.592505    0.049831
C     -2.661914    0.598181   -0.940130
C     -3.269470   -1.534781   -0.325367
C      2.650805    0.074023    0.590749
C      0.445640   -0.239242   -0.458026
C      1.244937   -0.290274    0.804532
C     -0.759569   -1.055778   -0.276244
N      0.219337    1.070243   -0.983948
N      5.283778    0.667643    0.158442
N     -2.095486   -0.659299   -0.501583
O      0.685785    0.393371    1.872205
O     -0.554460   -2.251350    0.130235
H     -4.058214    1.527011    0.456306
H     -4.797472    0.778406   -1.027001
H     -3.781107   -0.538271    1.520395
H     -5.219838   -1.000556    0.509920
H      2.418185    2.145416    0.962205
H      3.204009   -1.950416    0.168784
H      4.831528    2.669238    0.556929
H      5.535125   -1.400139   -0.210160
H     -2.778850    0.525358   -2.041353
H     -2.066187    1.486394   -0.652764
H     -2.996793   -2.472568    0.166377
H     -3.701460   -1.651066   -1.330006
H      1.067448   -0.778566   -1.236027
H      1.225785   -1.380337    1.126408
H      1.031445    1.693325   -0.904561
H     -0.137923    0.998174   -1.972644
H      1.283204    1.045028    2.282344
