49

C      0.071173    0.939206   -3.075402
C      2.018744    1.310396   -0.091429
C     -5.348598   -0.746954    1.586500
C      5.721125   -0.805189    0.425770
C     -2.525921    1.962484   -1.494572
C      1.125584   -2.042869    1.909639
C     -3.715909    2.664984   -1.391346
C      1.966074   -2.524638    2.885369
C     -3.332721    0.290952   -0.032514
C      2.976072   -1.207986    0.719470
C      0.047711    0.949207   -1.562584
C      1.319553    0.335580   -1.006655
C     -2.316004    0.776602   -0.824495
C      1.619540   -1.365529    0.791814
C     -4.715378    2.155234   -0.591828
C      3.327395   -2.346335    2.777758
C     -4.547027    0.967155    0.099187
C      3.868935   -1.680286    1.686730
C     -1.028947    0.101568   -0.990180
C      0.744380   -0.861219   -0.270926
O     -5.921226    2.829927   -0.463138
O      4.214886   -2.817193    3.741692
O     -5.579786    0.488776    0.893988
O      5.238804   -1.491697    1.562173
O     -0.490850   -0.358249    0.210804
H      0.858062    0.201503   -3.369371
H      0.410201    1.912932   -3.423191
H     -0.909838    0.611075   -3.474576
H      2.979457    1.592908   -0.540455
H      1.406971    2.263992   -0.120717
H      2.030982    1.019422    0.956586
H     -4.458935   -0.696723    2.228668
H     -6.275353   -1.035977    2.136570
H     -5.169275   -1.528203    0.815237
H      5.561480    0.289846    0.478971
H      5.352384   -1.231749   -0.528449
H      6.840407   -0.951479    0.401521
H     -1.762375    2.411405   -2.144139
H      0.049136   -2.170541    1.971226
H     -3.852666    3.590861   -1.927235
H      1.590510   -3.046619    3.747670
H     -3.209691   -0.631507    0.507600
H      3.425992   -0.698286   -0.123731
H      0.003303    2.006742   -1.220496
H      1.999830    0.009258   -1.789727
H     -1.181214   -0.774939   -1.658406
H      0.484189   -1.681240   -0.965618
H     -6.118119    3.701467   -0.935621
H      5.206952   -2.688074    3.664742
