67

C      9.809036    0.657539    1.177026
C     -4.969024   -1.987787   -2.217336
C     -3.166733   -3.172404   -1.078595
C      8.822473    0.610157    2.322485
C      7.407504    0.682592    1.781812
C      7.194289   -0.485053    0.875556
C      5.793086   -0.486062    0.289587
C      5.521677    0.747422   -0.509355
C      4.143580    0.764729   -1.112524
C      3.106035    0.702970   -0.046636
C      1.683248    0.736281   -0.607552
C      1.414313   -0.406610   -1.519812
C      0.056968   -0.463216   -2.115758
C     -7.737978   -0.410693    1.752672
C     -8.348979    1.929058    1.697297
C     -6.921459   -1.455681    1.376398
C     -8.085849    3.205105    1.227226
C     -4.479495    0.379089   -0.822412
C     -7.521305    0.878631    1.313979
C     -5.626386    0.053747    0.094659
C     -5.846745   -1.233634    0.535627
C     -3.463962   -0.723476   -0.651406
C     -1.061453   -0.572398   -1.173009
C     -6.997760    3.355501    0.392124
C     -6.454549    1.109175    0.477272
C     -4.164585   -2.039222   -0.958717
O     -0.845385   -0.629479    0.062463
O     -6.771531    4.527617   -0.028184
O     -2.391304   -0.619268   -1.555775
O     -6.223868    2.341008    0.040700
O     -5.008819   -2.298134    0.147770
H     10.700675    1.229970    1.489762
H      9.386542    1.181084    0.292961
H     10.044860   -0.393977    0.905462
H     -5.044398   -3.024079   -2.611931
H     -6.002214   -1.615878   -2.069997
H     -4.495613   -1.337554   -2.970004
H     -3.718826   -4.107879   -1.301068
H     -2.612049   -3.267055   -0.122201
H     -2.472762   -3.002098   -1.926959
H      8.974864   -0.270228    2.968904
H      8.971539    1.540350    2.919814
H      6.726188    0.644371    2.640318
H      7.335453    1.610608    1.188341
H      7.368810   -1.448254    1.397002
H      7.962185   -0.449370    0.057554
H      5.094460   -0.575219    1.161648
H      5.662512   -1.367432   -0.368103
H      5.614733    1.676385    0.094583
H      6.279261    0.850014   -1.317352
H      4.031105    1.702423   -1.707607
H      4.059084   -0.073507   -1.857311
H      3.232690   -0.256403    0.523946
H      3.215396    1.567576    0.608316
H      1.029844    0.688939    0.283742
H      1.579504    1.690791   -1.162308
H      2.124054   -0.297775   -2.394612
H      1.704693   -1.375674   -1.059360
H     -0.086840    0.371262   -2.833586
H      0.025204   -1.397818   -2.750404
H     -8.592372   -0.575622    2.418430
H     -9.185228    1.728121    2.357446
H     -7.104274   -2.470847    1.730784
H     -8.729682    4.030562    1.523448
H     -3.977111    1.318633   -0.449794
H     -4.797671    0.540927   -1.852008
H     -3.169650   -0.762852    0.394963
