69

C     -1.385660    1.522337   -2.299660
C     -1.070785    2.734231   -2.879309
C     -2.758244    2.737671   -0.769459
C      3.357181    1.820105    2.271503
C      1.246885    2.224769    1.321683
C      2.748112   -3.241020   -1.499797
C      3.983919   -1.912207    0.011723
C     -3.962691   -1.795319   -1.086241
C     -2.151976   -4.487024    0.770042
C     -2.247178    1.542898   -1.225339
C      2.092613    1.322467    1.926968
C      3.956425   -2.697310   -1.121779
C     -2.889696   -2.455171   -0.313387
C     -1.577437    3.933647   -2.429587
C     -3.093466   -3.787110    0.051880
C     -2.435279    3.939803   -1.357695
C      1.583267   -3.029002   -0.792341
C     -0.967469   -3.892712    1.156048
C      3.743750    3.117300    2.029133
C      1.634900    3.547192    1.072117
C     -3.723777   -0.360636   -1.326721
C      2.819885   -1.684433    0.741865
C      1.642700   -2.244754    0.329571
C     -0.755102   -2.577808    0.801675
C      0.479839   -1.935208    1.186098
C      2.880923    3.993689    1.424861
C      0.496482   -0.461275    1.400306
C     -2.643799    0.294282   -0.537580
C      1.730366   -0.087901    2.222128
C     -1.702605   -1.884892    0.082495
O      5.127014   -2.904565   -1.823887
O     -1.233928    5.138928   -3.043904
O     -4.288588   -4.389690   -0.336805
O     -2.954083    5.121120   -0.889793
O      0.362833   -3.603913   -1.213045
O     -0.052204   -4.651442    1.880158
O      5.031933    3.526994    2.409614
O      0.731646    4.421911    0.452538
O     -3.444774   -0.144456   -2.681298
O      3.277748    5.301500    1.183229
O     -0.637695    0.027765    2.031832
O      2.860629   -0.876308    1.903145
O     -1.539209   -0.555023   -0.303529
H     -0.957681    0.610475   -2.695053
H     -0.385646    2.734985   -3.736106
H     -3.440890    2.795562    0.075653
H      4.012776    1.094277    2.748314
H      0.244086    1.920335    1.024793
H      2.706424   -3.859109   -2.385358
H      4.926082   -1.453333    0.358721
H     -4.972623   -2.013477   -0.655164
H     -4.000831   -2.326482   -2.087910
H     -2.330777   -5.537267    1.048752
H     -4.679810    0.181060   -1.047847
H      0.756054   -2.377695    2.204282
H      0.581083    0.038051    0.420413
H     -3.032390    0.564249    0.465419
H      1.498492   -0.136195    3.308538
H      5.765726   -3.659832   -1.652140
H     -1.605821    6.001142   -2.711512
H     -4.520921   -5.341571   -0.114308
H     -3.581700    5.211182   -0.118344
H      0.409399   -4.166001   -2.047226
H      0.828922   -4.373220    2.218699
H      5.663397    2.888861    2.850778
H      1.012061    5.373771    0.273836
H     -2.908209   -0.879216   -3.046864
H      4.177346    5.639536    1.432837
H     -0.437952    0.460483    2.897188
