67

C     10.796455    0.219129    0.635538
C     -4.675152   -2.088229    1.347768
C     -3.527762   -2.642828   -0.736621
C      9.370798    0.316553    0.147722
C      8.383644   -0.104022    1.188376
C      6.945452   -0.008781    0.721797
C      6.670049   -0.869706   -0.465763
C      5.248298   -0.752009   -0.919486
C      4.314584   -1.173429    0.161425
C      2.858589   -1.092418   -0.259763
C      2.451708    0.295143   -0.645537
C      0.995894    0.351797   -1.054657
C      0.070757   -0.077401    0.037275
C     -8.576166    0.652291   -0.781828
C     -8.912697    2.835600    0.124269
C     -7.752723   -0.435201   -0.995111
C     -8.405161    3.900923    0.810012
C     -4.579361    0.718759    0.700853
C     -8.089939    1.738096   -0.093777
C     -5.958073    0.625551    0.156100
C     -6.443525   -0.452482   -0.527908
C     -3.727930   -0.254269   -0.072298
C     -1.319603   -0.000697   -0.417208
C     -7.102708    3.824804    1.247028
C     -6.796126    1.710717    0.362988
C     -4.399260   -1.596627   -0.063466
O     -1.580418    0.381346   -1.579746
O     -6.541418    4.765751    1.893753
O     -2.414309   -0.332841    0.375566
O     -6.366202    2.764633    1.015295
O     -5.630054   -1.537418   -0.743763
H     11.182522   -0.792531    0.425546
H     10.765977    0.369334    1.737951
H     11.374693    1.030856    0.142287
H     -4.978410   -3.147101    1.279111
H     -3.708584   -2.014416    1.905298
H     -5.481181   -1.503464    1.826987
H     -4.110029   -3.251418   -1.457446
H     -3.027616   -3.306015    0.016109
H     -2.703346   -2.138871   -1.289705
H      9.310058   -0.368429   -0.739211
H      9.178484    1.329083   -0.249067
H      8.468209    0.625864    2.046076
H      8.627550   -1.084874    1.616947
H      6.284233   -0.329632    1.576818
H      6.734651    1.046330    0.465575
H      7.390404   -0.653623   -1.292230
H      6.876696   -1.934380   -0.168308
H      5.084171   -1.399993   -1.829312
H      5.029024    0.280530   -1.282608
H      4.387064   -0.525183    1.060848
H      4.522868   -2.231299    0.417793
H      2.269795   -1.525606    0.558866
H      2.669169   -1.745469   -1.152803
H      3.045894    0.562159   -1.567647
H      2.665630    1.068335    0.091488
H      0.732946    1.376202   -1.388478
H      0.834722   -0.327661   -1.933008
H      0.196046    0.650029    0.884640
H      0.285394   -1.115021    0.358893
H     -9.593367    0.678102   -1.138850
H     -9.940437    2.873642   -0.230920
H     -8.109504   -1.313146   -1.538067
H     -8.959140    4.802855    1.033562
H     -4.251836    1.771520    0.533536
H     -4.637256    0.456224    1.773200
H     -3.723130    0.104331   -1.128661
