44

C      2.841078    2.742838   -1.076774
C      2.498319    1.828804    1.022613
C      2.479523   -2.296976    0.560114
C      1.228251   -3.156672    0.405012
C     -3.724727   -1.206634   -0.734047
C     -4.150358   -0.027176   -0.254625
C      2.356413   -1.159002   -0.387408
C     -2.395324   -1.552812   -0.755919
C      0.003376   -2.361695    0.751375
C     -1.846807    0.533368    0.219049
C      1.264004    0.914026   -0.848596
C     -3.199820    0.889885    0.242894
C     -1.422056   -0.670928   -0.271144
C      1.085841   -0.333052   -0.040051
C     -3.662242    2.152611    0.762664
C     -0.061119   -1.193175   -0.291494
N     -2.841808    3.064407    1.128821
N      2.529148    1.521680   -0.368671
O     -5.014900    2.407834    0.883304
O      0.142275   -1.851991   -1.520579
H      1.889876    3.257453   -1.303411
H      3.499133    2.559427   -1.942269
H      3.405398    3.458278   -0.416543
H      3.127105    1.139593    1.657257
H      1.491527    1.865570    1.488724
H      2.944933    2.855821    1.236548
H      3.320930   -2.934218    0.283117
H      2.486407   -1.929980    1.613025
H      1.319375   -4.016246    1.105660
H      1.129653   -3.485563   -0.670044
H     -4.492511   -1.899964   -1.110432
H     -5.219867    0.257021   -0.234016
H      3.222745   -0.511925   -0.460510
H      2.159038   -1.553710   -1.408684
H     -2.140789   -2.517305   -1.154054
H     -0.887778   -2.981618    0.683313
H      0.118044   -1.842720    1.730584
H     -1.156214    1.245940    0.627111
H      0.515573    1.690515   -0.776673
H      1.396970    0.669488   -1.935564
H      1.245014   -0.070753    1.042339
H     -1.816037    3.020146    1.096873
H     -5.412530    2.861092    1.706138
H     -0.255062   -1.381680   -2.285028
