39

C      0.848084   -2.903244   -1.584549
C     -3.434921    0.167119    1.001385
C      1.973879   -2.294272   -1.087388
C     -3.132271    1.308265    0.049296
C     -2.504735   -0.958288    0.601338
C     -0.344907   -2.252080   -1.394837
C      2.894802    1.712237    0.494743
C      1.539117    1.685389    1.024454
C      3.275578   -0.635055    0.006334
C     -0.759776    1.378838    0.614588
C      1.931450   -1.098535   -0.432467
C     -1.732437    1.036034   -0.459685
C     -1.779700   -0.469296   -0.620472
C     -0.405568   -1.039557   -0.733202
C      0.726253   -0.412137   -0.224624
N      3.343820    0.747290   -0.425481
N      0.558727    0.833255    0.446388
Cl     0.686353    0.000000    0.000000
H      0.890237   -3.865552   -2.110375
H     -3.235697    0.471170    2.040174
H     -4.470986   -0.201250    0.883730
H      2.914814   -2.836649   -1.253008
H     -3.867411    1.229661   -0.782024
H     -3.200950    2.278354    0.580729
H     -3.053489   -1.904116    0.403063
H     -1.810746   -1.178533    1.449636
H     -1.230686   -2.750221   -1.796625
H      3.636430    1.712634    1.353483
H      3.105686    2.717110    0.012449
H      1.559645    1.449401    2.133500
H      1.115382    2.736197    1.021126
H      3.250879   -0.608009    1.127886
H      4.081849   -1.247001   -0.390205
H     -0.748969    2.474307    0.795030
H     -1.159523    0.952243    1.583382
H     -1.485410    1.554661   -1.383783
H     -2.381156   -0.677200   -1.529364
H      3.092705    0.886826   -1.414624
H     -0.686353    0.000000    0.000000
