25

C     -2.264735   -1.287359    0.365278
C     -1.262948   -1.678070   -0.698812
C     -2.512823    0.215605    0.211845
C      1.205462   -1.305827   -0.931087
C      2.361131   -0.585818   -0.728301
C      1.148915    1.054549    0.429845
C     -0.032531   -0.866846   -0.455771
C      2.361600    0.610857   -0.043617
C     -0.033471    0.326733    0.227450
C     -1.298974    0.902877    0.787464
N      3.567047    1.337695    0.154057
O     -1.385693    2.262698    0.523410
O      3.482919    2.536690    0.855416
O      4.647537    0.933630   -0.272808
H     -3.197978   -1.865934    0.320196
H     -1.751091   -1.417283    1.342543
H     -1.642337   -1.471769   -1.717283
H     -1.056057   -2.771361   -0.579548
H     -2.637089    0.490617   -0.858690
H     -3.391270    0.492626    0.828746
H      1.184599   -2.247971   -1.466426
H      3.314842   -0.958481   -1.114206
H      1.122139    2.000416    0.975953
H     -1.314698    0.777875    1.897546
H     -0.614497    2.513853   -0.053200
