39

C     -0.470612    3.320346   -0.145639
C      3.774590   -0.627140   -0.189728
C     -1.683227    2.687258   -0.291094
C      2.876990   -1.727398    0.335658
C      2.734557    0.377601   -0.701713
C      0.621277    2.518227    0.094227
C     -3.150802   -1.388847    0.121317
C     -1.770963   -1.811284    0.501937
C     -3.257334    0.965175   -0.407039
C      0.492710   -1.600481   -0.144951
C     -1.831470    1.323489   -0.206809
C      1.568575   -1.055884    0.738402
C      1.769888    0.403153    0.448777
C      0.534567    1.137593    0.189776
C     -0.721077    0.546165    0.034007
N     -3.545325   -0.100447    0.553969
N     -0.735572   -0.887374    0.144962
Cl     0.684806    0.000000    0.000000
H     -0.388208    4.401885   -0.218170
H      4.310916   -0.175763    0.669542
H      4.440355   -0.947826   -0.993137
H     -2.539561    3.349580   -0.481846
H      2.733181   -2.440720   -0.504693
H      3.341752   -2.240288    1.206851
H      2.306541   -0.061478   -1.613728
H      3.219806    1.360755   -0.870009
H      1.575009    3.026217    0.207856
H     -3.315101   -1.456312   -0.979809
H     -3.855143   -2.136134    0.564022
H     -1.558215   -2.770683   -0.014447
H     -1.709373   -2.022635    1.584958
H     -3.379792    0.541753   -1.422552
H     -3.940802    1.793834   -0.250600
H      0.374665   -2.683880   -0.067218
H      0.802597   -1.377872   -1.205828
H      1.357083   -1.225010    1.812116
H      2.332288    0.830727    1.328096
H     -3.314767    0.153697    1.516667
H     -0.684806    0.000000    0.000000
