25

C     -2.307324   -0.842192   -0.724800
C     -1.514793   -1.526224    0.377699
C     -2.439591    0.622432   -0.283887
C      0.920745   -1.683601    0.745105
C      2.191649   -1.149539    0.725555
C      1.296269    0.887122   -0.087994
C     -0.156934   -0.922299    0.345379
C      2.401919    0.147630    0.307852
C      0.029020    0.358808   -0.069941
C     -1.084712    1.250540   -0.519053
N      3.707617    0.711208    0.282638
O     -0.978835    2.501876    0.051235
O      3.901328    2.000538   -0.134519
O      4.665372    0.003064    0.648706
H     -3.285353   -1.299965   -0.900013
H     -1.686512   -0.866264   -1.661136
H     -1.473916   -2.618629    0.193518
H     -1.982291   -1.313254    1.355254
H     -2.737737    0.658912    0.780463
H     -3.192902    1.152074   -0.868729
H      0.796027   -2.723329    1.085544
H      3.058270   -1.716671    1.031548
H      1.445782    1.919817   -0.422828
H     -0.973569    1.325767   -1.637058
H     -0.599528    3.122177   -0.620539
