37

C      0.642658    2.657790   -1.725082
C     -3.851647   -0.017718    0.395161
C      1.865504    2.218242   -1.269836
C     -2.854021   -0.442694    1.482925
C     -2.952804    0.881010   -0.428528
C     -0.517869    1.958398   -1.503829
C      2.989471   -1.659075    0.232185
C      1.546053   -2.086232    0.434658
C      3.290942    0.701448   -0.163658
C     -0.462055   -1.157709    1.298505
C      1.877276    1.028046   -0.570946
C     -1.732327   -0.968797    0.566339
C     -1.728782   -0.015855   -0.574242
C     -0.504138    0.753261   -0.796285
C      0.707044    0.287282   -0.326112
N      3.246966   -0.363083    0.807052
N      0.656105   -0.949295    0.403813
H      0.574434    3.592373   -2.282967
H     -4.725824    0.474515    0.799274
H     -4.053005   -0.915069   -0.223212
H      2.782348    2.773556   -1.446691
H     -2.514062    0.463813    2.021961
H     -3.258875   -1.227960    2.120161
H     -3.433219    1.093256   -1.399664
H     -2.709640    1.803413    0.133310
H     -1.490290    2.300479   -1.861630
H      3.262669   -1.721840   -0.834047
H      3.618213   -2.402969    0.762680
H      1.293057   -2.772794   -0.394027
H      1.467590   -2.632968    1.392111
H      3.783633    1.588934    0.225044
H      3.787634    0.327220   -1.100884
H     -0.349901   -0.453913    2.154618
H     -0.431265   -2.190516    1.711796
H     -2.084552   -1.971864    0.222017
H     -1.911864   -0.577351   -1.547651
H      4.174543   -0.375335    1.285682
