54

C     -5.659356    1.254623    0.609092
C      3.953212   -0.620134    2.898240
C     -5.018026   -1.484962    0.168951
C      5.478558   -0.442380   -0.687461
C     -1.187854   -1.535899   -1.356575
C      1.296694    1.723528   -2.398065
C      0.094618    1.969337    0.954423
C     -4.242213    1.359874    0.978395
C      4.054227   -1.356390    1.579904
C     -3.676650   -1.008283    0.569464
C      4.036604   -0.126949   -0.551234
C     -1.217197   -1.508856    0.119777
C      2.064081    1.313654   -1.175991
C     -0.076384    0.765652    0.011838
C     -3.353688    0.210610    0.915608
C      3.366986   -0.551481    0.505740
C     -2.570825   -1.996287    0.573833
C      3.339017    0.647180   -1.567231
C     -0.882038   -0.231186    0.781569
C      1.263654    0.246065   -0.430553
O     -2.743032   -3.181464    0.934956
O      3.817540    0.733580   -2.725106
O     -2.018538    0.415299    1.260287
O      2.022409   -0.263888    0.644208
H     -6.095116    2.326458    0.488991
H     -5.930373    0.777860   -0.321612
H     -6.257157    0.911692    1.503932
H      4.094822    0.469005    2.740287
H      4.748196   -1.018782    3.558968
H      2.973362   -0.852491    3.362051
H     -5.833669   -1.229875    0.841536
H     -5.226054   -1.328261   -0.923657
H     -5.002894   -2.631590    0.226004
H      5.845765   -0.016220   -1.647518
H      5.671100   -1.526229   -0.710841
H      6.027530    0.077963    0.138495
H     -0.418042   -2.267449   -1.733550
H     -2.144770   -1.973814   -1.739258
H     -1.119978   -0.555523   -1.864705
H      0.700206    2.629596   -2.179796
H      1.956797    1.980340   -3.253163
H      0.650865    0.879986   -2.754083
H      0.180586    2.913174    0.377340
H     -0.814238    2.088920    1.588439
H      0.932478    1.801835    1.653599
H     -3.804635    2.186865    0.343718
H     -4.122616    1.790827    2.026471
H      3.613270   -2.349205    1.658865
H      5.147824   -1.405732    1.315011
H     -0.498681   -2.290980    0.496075
H      2.337207    2.154294   -0.520602
H     -0.661250    1.138416   -0.843437
H     -0.255580   -0.436326    1.717848
H      1.163250   -0.575996   -1.164300
