47

C     -1.130848   -2.509124    1.543527
C     -1.427755    0.256323    1.941418
C      3.495159   -1.940781    1.589387
C      3.902554   -1.561653   -0.686284
C     -2.413514    4.561796    0.165124
C     -1.541506    5.422639   -0.462556
C     -1.859375   -3.073145   -2.106832
C     -1.569382   -3.297800   -0.781762
C     -2.190780    3.219447    0.297818
C     -0.389895    4.876068   -0.975352
C      1.305971   -0.239566   -0.880936
C     -2.022807   -1.771766   -2.513143
C      2.041768   -0.567404    0.403094
C     -1.440011   -2.241789    0.144816
C     -1.526594    0.217313    0.489474
C     -1.001046    2.631089   -0.227772
C     -0.190668    3.516189   -0.826593
C      0.518876    0.937148   -0.711138
C     -0.657598    1.322378   -0.160963
C     -1.608888   -0.969457   -0.295921
N     -1.897912   -0.791288   -1.629991
N      2.855285   -1.761153    0.281159
S      1.175554    2.463256   -1.351170
H     -1.217591   -3.651584    1.661394
H     -0.066852   -2.375042    1.822228
H     -1.864146   -2.178882    2.290291
H     -2.418244    0.076805    2.416989
H     -1.283514    1.374906    2.196371
H     -0.591236   -0.189266    2.458881
H      3.475352   -3.000465    1.906263
H      3.025437   -1.332263    2.368577
H      4.568209   -1.642876    1.547852
H      4.184018   -0.490360   -0.761569
H      3.665791   -2.003139   -1.676945
H      4.805738   -2.099964   -0.325360
H     -3.322685    5.018962    0.566095
H     -1.715636    6.476859   -0.567838
H     -1.953350   -3.914664   -2.801145
H     -1.428550   -4.318724   -0.407147
H     -2.938534    2.645765    0.805636
H      0.374658    5.432291   -1.487856
H      2.104662   -0.093148   -1.640167
H      0.808733   -1.173094   -1.193429
H     -2.250580   -1.620921   -3.562073
H      2.784604    0.278730    0.525772
H      1.416212   -0.587039    1.291454
H     -2.589087    0.668392    0.322183
