75

C      6.604573    2.098485   -2.755978
C      5.498023    1.907211   -1.740207
C     -8.475221   -0.209399    0.264084
C     -8.217106    0.630259   -0.963770
C     -7.495823   -1.323478    0.387650
C     -3.635202    1.216131    0.367615
C     -3.134455   -0.011707    0.854688
C     -6.745841    0.690261   -1.204011
C     -6.038351   -0.828233    0.573564
C     -4.873034    1.412225    0.079308
C     -1.831175   -0.115823    1.120522
C      7.071664    0.832776   -0.150089
C      7.365392    0.411990    1.061179
C      4.281407    0.639477    0.783103
C      3.196593    0.454791    0.061720
C      2.759447   -1.682996    1.236114
C      1.954751   -2.961909    1.291074
C      0.543132    0.597430    1.021971
C     -5.986136    0.557926    0.150688
C      6.101191    1.891421   -0.355936
C     -0.910765    0.993168    0.924504
C      5.067330    1.901972    0.727770
C      0.925643   -0.437207   -0.007070
C      6.705247    1.015590    2.214374
C      2.386833   -0.817956    0.104263
N      2.113025   -3.756802    0.099461
O     -1.170737    2.061313    1.792410
O      6.974103    0.631102    3.375457
O      2.713098   -1.462965   -1.111914
O     -0.995600   -0.211558   -2.357091
O     -2.209465   -2.468525   -1.472526
O      0.131718   -2.504105   -2.543668
O      5.766429    2.036774    1.964247
O      0.078323   -1.444917   -0.199169
P     -0.736201   -1.693113   -1.570218
H      6.252295    2.729162   -3.619538
H      7.481293    2.630902   -2.334383
H      6.976658    1.129330   -3.148278
H      4.850732    2.813714   -1.820231
H      4.964438    0.989920   -1.988220
H     -8.592399    0.403893    1.159319
H     -9.489974   -0.672720    0.087908
H     -8.751382    0.233867   -1.838002
H     -8.620958    1.647734   -0.732871
H     -7.809871   -1.988213    1.193368
H     -7.581689   -1.919182   -0.569186
H     -2.891260    2.046176    0.236482
H     -3.707575   -0.883514    1.041348
H     -6.379992   -0.033843   -1.930506
H     -6.513811    1.706868   -1.573068
H     -5.481126   -1.561385   -0.076774
H     -5.879648   -0.983990    1.659546
H     -5.127612    2.463834   -0.303640
H     -1.468982   -1.061051    1.493597
H      7.561459    0.383887   -1.029753
H      8.097274   -0.379972    1.172133
H      4.605815   -0.161356    1.436891
H      2.821024    1.221899   -0.613292
H      2.814055   -1.182435    2.215487
H      3.819743   -2.028867    1.042526
H      2.332358   -3.614130    2.137950
H      0.886848   -2.801620    1.477789
H      0.841178    0.320681    2.047666
H      1.124969    1.511541    0.777391
H     -6.749157    1.106556    0.849623
H      6.661415    2.869353   -0.241874
H     -1.024889    1.391722   -0.127524
H      4.374663    2.772014    0.581195
H      0.904898    0.158136   -0.977926
H      1.644187   -4.666641    0.269321
H      3.116637   -3.961980   -0.099479
H     -0.762634    1.778032    2.671686
H      2.746011   -0.765155   -1.837904
H     -1.717744   -0.365423   -3.039373
H     -2.110053   -3.327356   -0.956761
