52

C      6.734973   -0.780634    0.085506
C      6.275561    1.709883    0.494324
C      2.020290   -1.341579    0.907832
C     -6.743989    0.974131    1.105150
C      3.525081    1.272636   -0.171849
C      4.510490    0.174019   -0.187884
C      2.414287    1.181336    0.797030
C      0.205019    0.256446    0.443173
C     -3.413475    1.268565    0.463073
C     -3.158963   -1.387735   -0.042140
C     -1.497180   -1.016177   -1.875089
C      5.790859    0.356812    0.118063
C      1.499046    0.032656    0.694780
C     -4.398321   -0.731109   -0.567612
C     -4.700190    0.589024    0.101736
C     -2.369347    0.840747   -0.484041
C     -0.749078   -0.843087    0.367646
C     -0.305628   -1.863229   -1.619218
C     -1.941396   -0.568176   -0.497587
O     -5.471656   -1.592349   -0.301779
O     -1.871998    1.632081   -1.237420
O      0.483432   -2.363114   -2.447435
O     -5.509031    0.336958    1.199104
O     -0.207155   -2.015734   -0.249632
H      7.652543   -0.598909    0.660971
H      6.181199   -1.681775    0.462553
H      7.053611   -0.931120   -0.974892
H      5.784096    2.083513    1.407061
H      6.087181    2.460968   -0.321942
H      7.372675    1.717226    0.644504
H      2.990084   -1.358602    1.440204
H      2.151310   -1.828898   -0.074585
H      1.327538   -1.936624    1.562035
H     -6.562334    2.051517    1.039682
H     -7.287596    0.776406    2.053029
H     -7.364787    0.563801    0.283177
H      3.142557    1.376595   -1.216804
H      4.108300    2.206798    0.103611
H      4.224904   -0.830732   -0.470733
H      1.830172    2.148287    0.744588
H      2.801693    1.179466    1.862953
H     -0.110169    1.273529    0.298163
H     -3.592955    2.374088    0.425785
H     -3.155188    1.024082    1.518290
H     -3.119992   -2.417846   -0.419200
H     -3.166714   -1.318139    1.059733
H     -1.210641   -0.142033   -2.474832
H     -2.262554   -1.648639   -2.369428
H     -4.376648   -0.609058   -1.679135
H     -5.290400    1.262976   -0.583013
H     -1.054016   -1.102929    1.422652
H     -5.275501   -2.216321    0.440489
