52

C      5.060191   -0.761034    0.804367
C      5.854824    1.628462    0.287387
C      1.908842    1.058318   -0.185989
C     -6.495659    0.408097   -0.687099
C      3.767117   -0.823033   -1.793871
C      4.512919    0.339272   -1.307837
C      2.331053   -0.624240   -2.109332
C      0.615468   -0.959747   -0.392626
C     -3.222244    0.463738   -1.286647
C     -2.575012   -1.055970    1.190634
C     -1.632135    1.181013    1.234350
C      5.119729    0.407671   -0.123874
C      1.587123   -0.203948   -0.870137
C     -3.874912   -1.172265    0.493924
C     -4.295963    0.022002   -0.319371
C     -1.887989   -0.030596   -0.907739
C     -0.162856   -0.614885    0.781232
C     -0.657433    0.988602    2.328116
C     -1.563352   -0.135611    0.525042
O     -3.943660   -2.344593   -0.290995
O     -1.091480   -0.337428   -1.742510
O     -0.692141    1.296895    3.542045
O     -5.398958   -0.353636   -1.074149
O      0.397664    0.333030    1.651859
H      3.994498   -1.073149    0.986217
H      5.594581   -1.639254    0.386634
H      5.536128   -0.492758    1.767770
H      5.575255    2.489701   -0.321509
H      5.653136    1.775765    1.374050
H      6.961157    1.447935    0.223123
H      2.582949    1.713805   -0.819496
H      2.447082    0.942089    0.772549
H      1.004811    1.711161   -0.080285
H     -6.352901    1.488933   -0.824583
H     -6.725094    0.262709    0.404595
H     -7.381244    0.022818   -1.248304
H      4.245377   -1.272533   -2.703927
H      3.864768   -1.608786   -0.977473
H      4.582625    1.204286   -1.963503
H      2.259616    0.235561   -2.838667
H      1.843330   -1.500111   -2.555200
H      0.412077   -1.883854   -0.920230
H     -3.236150    1.589628   -1.264826
H     -3.487201    0.205277   -2.349893
H     -2.636427   -0.772796    2.245366
H     -2.090279   -2.076320    1.177989
H     -2.648761    1.416551    1.616801
H     -1.248019    1.983224    0.570371
H     -4.672447   -1.313419    1.276321
H     -4.608169    0.815782    0.368934
H     -0.305228   -1.601742    1.351947
H     -4.826608   -2.780614   -0.217820
