47

C      5.101339    2.036887    0.601012
C      5.906804    1.263169    1.452144
C     -3.101459    2.463121   -1.001045
C     -4.984482   -1.097632    1.626706
C     -4.219107    1.962572   -0.361383
C     -5.373615    0.097340    0.835524
C      3.948217    1.450812    0.107874
C     -1.929014    1.715753   -1.174715
C      5.526482   -0.017764    1.748818
C     -3.943135   -1.994786    1.090151
C      2.653585   -1.817075    0.657894
C     -1.578181   -1.629811    0.084130
C     -4.194190    0.661384    0.136717
C      3.569321    0.160829    0.410045
C     -1.933672    0.433749   -0.673625
C      2.452179   -0.636861    0.022889
C     -0.967902   -0.595917   -0.599829
C      4.376296   -0.564184    1.238053
C      1.503098   -0.059370   -0.900009
C      0.274721   -0.586991   -1.368636
C     -3.038130   -0.060733   -0.040442
C      2.243401    0.154511   -2.246928
C      0.080344   -0.017210   -2.749885
N      3.795208   -1.767056    1.375086
N      1.407103    0.166615   -3.203610
N     -2.837204   -1.306959    0.420151
O      3.601149    0.301988   -2.384820
O     -0.944932    0.243600   -3.390223
H      5.379851    3.050520    0.338726
H      6.806482    1.718413    1.844338
H     -3.094621    3.461803   -1.381561
H     -5.935938   -1.721977    1.709641
H     -4.797677   -0.805641    2.691655
H     -5.121446    2.555694   -0.233501
H     -6.180030   -0.154088    0.099115
H     -5.824236    0.835176    1.551503
H      3.317589    2.082133   -0.529201
H     -1.061225    2.142655   -1.646220
H      6.123774   -0.603657    2.393548
H     -4.449650   -2.685342    0.346426
H     -3.583341   -2.658175    1.888550
H      1.977932   -2.658677    0.575129
H     -1.126876   -2.602628    0.333202
H      1.390935    1.054432   -0.592096
H      0.447736   -1.711158   -1.633253
H      4.209851   -2.516165    1.960614
H      4.126662    0.256704   -3.248503
