29

C     -1.046228   -1.961323   -0.329700
C     -1.982093   -1.530606    0.544755
C      2.965789   -1.358806    0.562056
C      3.575839   -0.390279    1.330548
C     -0.642729   -0.925057   -1.320215
C      1.762666   -1.125262   -0.072651
C     -2.420149   -0.139113    0.351605
C      2.955599    0.853610    1.464538
C     -0.139307    0.341299   -0.628421
C      1.129454    0.118184    0.054507
C     -1.280122    0.859695    0.175768
C      1.744739    1.083179    0.823510
C     -1.943905    1.982058   -0.591021
Br     0.997771    2.820286    1.051527
O     -2.140273    3.085575   -0.090773
O     -2.324811    1.701869   -1.895222
H     -0.683102   -2.961642   -0.263581
H     -2.340962   -2.198919    1.301886
H      3.467730   -2.314117    0.473842
H      4.512573   -0.522603    1.845622
H      0.032215   -1.351583   -2.043014
H     -1.550254   -0.592516   -1.907586
H      1.368363   -1.938955   -0.661085
H     -3.074803   -0.028810   -0.554860
H     -3.039592    0.226659    1.197996
H      3.427628    1.619605    2.065523
H      0.067369    1.048074   -1.478437
H     -0.982058    1.143479    1.181691
H     -2.417349    2.456019   -2.588809
