22

C     -1.638506    1.010129   -0.241673
C     -0.956643   -1.198006    0.200026
C     -2.959589    0.634518   -0.260858
C     -2.289081   -1.584708    0.182088
C      1.782501   -0.375768    0.439945
C     -0.608675    0.119854   -0.014044
C     -3.292530   -0.665850   -0.048950
C      0.771240    0.619439   -0.013303
C      3.125782    0.255395    0.392497
Cl    -4.992879   -1.159170   -0.071865
O      0.927623    1.796798    0.701698
O      3.265905    1.445632    0.013648
O      4.291168   -0.423308    0.759103
H     -1.384975    2.066988   -0.415016
H     -0.196142   -1.916949    0.379191
H     -3.719159    1.400223   -0.448335
H     -2.592773   -2.612459    0.346898
H      1.830089   -1.277669   -0.211171
H      1.597319   -0.718949    1.484408
H      1.021488    0.876231   -1.083241
H      0.864661    1.619570    1.679136
H      5.153176    0.088058    0.885951
