66

C     -5.268198   -1.876301    1.137090
C     -0.446142   -2.943409    1.707875
C      3.595064   -2.046289   -2.067532
C      7.089907    1.094751   -0.307387
C     -2.268429   -1.419118   -2.504563
C      5.370123    1.627724    2.759053
C     -3.173455    1.425281    0.924618
C     -2.894106    2.581776   -1.067038
C     -4.074819    2.374102    1.350135
C     -3.760533    3.532001   -0.696204
C     -2.727060   -2.355585    1.312746
C     -3.594978   -1.091870   -0.499134
C      0.783457   -0.036971   -1.092955
C      0.156757    0.110209    1.061461
C     -3.845473   -1.745333    0.603263
C     -1.485259   -2.271044    0.883591
C      4.039980   -0.942134   -1.163615
C      5.672661    0.582772   -0.275083
C     -2.525964    1.453205   -0.298847
C     -4.391395    3.462347    0.536408
C      1.735871   -0.843123   -0.317976
C      5.335270   -0.462942   -1.132115
C      3.128719   -0.314090   -0.296169
C     -1.133363   -1.562611   -0.322506
C     -1.640862    0.448557   -0.838268
C      4.731753    1.132292    0.537295
C     -2.283355   -0.928237   -1.065580
C     -0.513964   -0.180644   -0.217272
N     -5.353152    4.448174    0.931225
O      6.150326   -1.019229   -1.897740
O     -5.962302    4.400200    2.154691
O     -5.629956    5.348577    0.129736
O      5.032089    2.198309    1.449068
O      1.335883   -0.657867    1.044872
O      3.486407    0.653063    0.485138
H     -5.859257   -1.045524    0.653477
H     -5.626032   -2.863136    0.783256
H     -5.319574   -1.723962    2.214127
H     -0.262940   -2.415912    2.651970
H      0.490427   -3.179110    1.158470
H     -0.859442   -3.977097    1.949418
H      3.183946   -2.917065   -1.559442
H      4.506070   -2.417337   -2.631372
H      2.926221   -1.633829   -2.864571
H      7.301328    1.359681   -1.381802
H      7.224838    1.987231    0.301331
H      7.793592    0.269029   -0.083624
H     -1.408936   -2.132156   -2.685217
H     -2.116297   -0.554964   -3.181718
H     -3.216149   -1.965683   -2.735889
H      5.136341    2.323362    3.570166
H      4.776041    0.684718    2.921758
H      6.447130    1.330439    2.769009
H     -2.946947    0.613622    1.605970
H     -2.418043    2.688288   -2.054827
H     -4.567121    2.304947    2.302916
H     -3.997028    4.389744   -1.348342
H     -2.947143   -2.905101    2.245285
H     -4.452144   -0.638690   -1.019671
H      0.445365   -0.471717   -2.070372
H      1.066288    1.012135   -1.181231
H     -0.386580   -0.151518    1.973517
H      0.462964    1.189960    1.082926
H      1.748270   -1.912841   -0.494212
H     -0.445908   -2.203527   -0.955169
H     -1.350783    0.779476   -1.905931
