44

C     -0.829060   -0.831478   -2.459871
C      4.199069   -1.000058    0.561980
C      3.943226    0.755988   -1.078073
C     -1.628660    3.767248    0.708167
C     -0.734747    4.130145    1.666541
C     -1.574793    2.590566    0.029350
C      0.280826    3.224892    1.945310
C     -3.285145   -2.925792    0.473707
C     -2.363273   -2.218571   -0.266469
C      1.334305   -1.549963   -0.279395
C      2.520743   -1.231508   -1.189754
C     -4.432695   -0.895203    0.737733
C     -1.390140   -0.159789   -1.294375
C     -4.348421   -2.249564    0.991813
C     -0.546483    1.636768    0.290784
C     -2.434016   -0.875687   -0.524892
C      0.313396    2.032608    1.239848
C      0.659628   -0.350741    0.059137
C     -0.377168    0.429029   -0.309913
F     -5.306396   -2.890374    1.729764
N     -3.520907   -0.239687    0.015110
N      3.461513   -0.422619   -0.488694
S      1.448319    0.646426    1.319335
H     -1.489570   -0.681601   -3.401321
H     -0.909836   -1.947926   -2.362964
H      0.133950   -0.467090   -2.816355
H      4.706485   -0.182088    1.147502
H      5.021830   -1.693565    0.234455
H      3.574594   -1.526979    1.302716
H      4.798095    0.630097   -1.789394
H      3.129729    1.332405   -1.600389
H      4.363184    1.435629   -0.269133
H     -2.430276    4.479922    0.481339
H     -0.816215    5.061758    2.169877
H     -2.345727    2.413475   -0.706488
H      1.032646    3.423075    2.677368
H     -3.211210   -3.984943    0.661024
H     -1.546107   -2.788918   -0.657067
H      1.765247   -2.047550    0.605121
H      0.801433   -2.350843   -0.802625
H      3.022457   -2.174910   -1.511469
H      2.239455   -0.673103   -2.102804
H     -5.272541   -0.358834    1.147713
H     -1.956745    0.729354   -1.731135
