22

C     -0.949720    0.810491   -1.080020
C     -1.156772   -0.641310    0.760986
C     -2.046738    1.549420   -0.655969
C     -2.245931    0.086861    1.187665
C      1.902189   -0.920639    0.068146
C     -0.471596   -0.289553   -0.403255
C     -2.703672    1.182966    0.493035
C      0.705505   -1.091965   -0.823544
C      2.367545    0.470727    0.115266
Cl    -4.095530    2.052634    1.106219
O      0.347936   -2.459306   -0.879390
O      1.800790    1.369825   -0.534026
O      3.462128    0.880575    0.879433
H     -0.443316    1.111908   -2.005800
H     -0.794044   -1.513686    1.315538
H     -2.391100    2.410643   -1.219027
H     -2.760615   -0.222140    2.111755
H      1.691290   -1.253333    1.119029
H      2.690146   -1.624181   -0.291634
H      0.998267   -0.809137   -1.848506
H      0.094162   -2.805476    0.010203
H      3.999076    1.704677    0.573896
