49

C     -1.547362   -2.877003    0.064964
C     -5.717240    1.612494   -0.260153
C     -6.378587   -0.487222    0.541615
C      4.329535    0.570887   -0.360737
C      4.504798   -1.464900    0.828344
C     -7.017003    2.060501   -0.170073
C     -7.670385   -0.039447    0.631325
C      2.932831    0.452669   -0.351543
C      3.138015   -1.562777    0.829306
C      7.133672    0.815329    1.227875
C      0.067793   -0.242722   -0.767579
C     -2.146523   -1.490673   -0.091349
C      5.125874   -0.366790    0.218056
C     -5.363273    0.340575    0.086898
C     -8.011426    1.249687    0.273405
C      2.320476   -0.620232    0.248673
C      6.594358   -0.198391    0.254719
C      7.187607    1.089225   -0.238675
C     -1.365912   -0.391235   -0.392889
C     -3.974362   -0.180062    0.005039
C      8.503436    0.939418   -0.911900
C     -9.414199    1.701140    0.399941
F     -9.383850    2.750584    1.317785
F    -10.173793    0.688765    0.955529
F    -10.000285    2.069098   -0.770795
N      0.895881   -0.780105    0.243805
N     -3.421257   -1.242286    0.078839
O      8.784732    1.750188   -1.836903
O      9.451372   -0.018983   -0.596242
S     -2.560035    0.920788   -0.396679
H     -2.362500   -3.665926   -0.019626
H     -0.833087   -3.027809   -0.739055
H     -1.175225   -3.015381    1.102721
H     -4.913957    2.263937   -0.631856
H     -6.098772   -1.484505    0.815476
H      4.709478    1.456878   -0.871772
H      5.162384   -2.200886    1.285573
H     -7.230566    3.068586   -0.470321
H     -8.487291   -0.678623    0.985351
H      2.324496    1.195631   -0.813840
H      2.635272   -2.408783    1.274688
H      8.081642    0.577560    1.722574
H      6.398734    1.389848    1.842297
H      0.235211    0.883301   -0.886305
H      0.272022   -0.662388   -1.783964
H      7.159369   -1.154623    0.273185
H      6.598828    1.924001   -0.576717
H      0.470351   -1.330128    1.066445
H     10.228721   -0.179207   -1.262542
