54

C      3.170915    3.055981    1.387334
C     -1.905463    2.537150    0.041317
C      3.986137    2.183374   -1.167835
C     -4.241266    0.331600    2.343730
C      1.604320   -1.802254   -3.030034
C     -1.767279   -3.799154    0.945056
C     -1.002363   -1.177670   -1.863955
C      2.158014    2.032702    1.184450
C     -2.034406    1.906515    1.424863
C      2.866607    1.235423   -1.068917
C     -3.028522   -0.316150    1.751728
C      2.122516   -1.050895   -1.822196
C     -2.106740   -2.350005    0.566522
C     -0.110379   -1.721432   -0.829437
C      2.089347    1.209816   -0.010328
C     -2.014065    0.419816    1.330094
C      2.618084    0.298739   -2.192131
C     -2.946931   -1.745507    1.631445
C      1.224064   -1.055027   -0.651950
C     -0.817098   -1.595356    0.533926
O      2.830185    0.673055   -3.372792
O     -3.578726   -2.495650    2.417319
O      1.064888    0.222672   -0.118122
O     -0.920041   -0.229996    0.792491
H      4.226801    2.753043    1.267716
H      2.936634    4.071811    0.972008
H      3.161585    3.309840    2.522117
H     -0.831821    2.687656   -0.236578
H     -2.392895    3.518313    0.082008
H     -2.323174    1.862007   -0.739449
H      3.742942    3.236617   -0.985216
H      4.919970    1.808968   -0.711412
H      4.266194    2.211328   -2.283235
H     -3.949184    0.985773    3.214330
H     -4.886103   -0.470357    2.739366
H     -4.716052    0.912257    1.544410
H      2.436632   -2.352058   -3.567488
H      0.899247   -2.607525   -2.749498
H      1.206476   -1.126873   -3.821883
H     -1.644914   -4.379456    0.000897
H     -0.865416   -3.839039    1.578890
H     -2.601388   -4.263976    1.519886
H     -1.388264   -1.928471   -2.586841
H     -1.943299   -0.731066   -1.417374
H     -0.595624   -0.347414   -2.467481
H      2.105886    1.413476    2.137011
H      1.139838    2.565165    1.242238
H     -1.178136    2.237694    2.028891
H     -2.957461    2.218117    1.928875
H      3.055715   -1.629902   -1.538098
H     -2.663987   -2.334686   -0.396463
H     -0.016724   -2.825495   -0.962069
H      1.721951   -1.663792    0.162397
H     -0.127228   -2.059705    1.299470
