49

C     -1.104495   -0.369889   -1.768699
C     -6.191883    0.748813    1.531265
C     -6.149236   -0.573549   -0.431279
C      4.406702   -0.613871   -0.820009
C      4.342553    1.273849    0.584753
C     -7.605852    0.775325    1.467715
C     -7.537450   -0.571031   -0.518604
C      3.046392   -0.801653   -0.631045
C      2.968231    1.087518    0.782026
C      7.230459   -0.336383    0.865988
C      0.002805    0.881221    0.770363
C     -1.993741   -0.040049   -0.566588
C      5.063693    0.428820   -0.209995
C     -5.491983    0.073386    0.571916
C     -8.268697    0.127569    0.461939
C      2.289157    0.058091    0.187667
C      6.581934    0.564380   -0.266117
C      7.424087   -0.560051   -0.646252
C     -1.382586    0.471666    0.584744
C     -4.013286    0.063414    0.441214
C      8.859868   -0.490118   -0.977186
C     -9.760653    0.254712    0.335141
F    -10.062293    1.458993   -0.329360
F    -10.307734    0.334464    1.597965
F    -10.251780   -0.769659   -0.376513
N      0.881872   -0.200624    0.388948
N     -3.261605   -0.187936   -0.505338
O      9.570433    0.463747   -0.631360
O      9.501324   -1.516684   -1.717022
S     -2.812457    0.664944    1.640366
H     -0.129976    0.094052   -1.692473
H     -1.606906    0.092786   -2.676615
H     -1.137598   -1.450702   -1.896434
H     -5.695605    1.258566    2.307932
H     -5.591456   -1.115343   -1.169952
H      4.982050   -1.274615   -1.464079
H      4.871395    2.103009    1.067549
H     -8.143053    1.308606    2.214187
H     -8.075445   -1.069960   -1.299377
H      2.513849   -1.607086   -1.106273
H      2.396443    1.749925    1.409971
H      8.020186    0.131037    1.460802
H      6.561811   -1.073324    1.324450
H      0.146782    0.973357    1.895666
H      0.179743    1.844832    0.239884
H      6.899693    1.606239   -0.157845
H      6.930073   -1.466816   -1.078125
H      0.492601   -1.150758    0.255594
H     10.411634   -1.888236   -1.451503
