25

C     -2.555974    0.037888   -1.462725
C     -2.485940   -1.167933    0.614113
C      3.046894   -0.740631   -0.693960
C      0.568049   -0.755048   -0.133722
C      2.033652    1.156650    0.432768
C     -0.404884    1.146623    1.078870
C     -1.862734   -0.260535   -0.372724
C      1.877188   -0.046682   -0.099052
C     -0.508334    0.310183   -0.173194
C      0.901056    1.857769    1.022560
O      1.057907    3.022651    1.458895
H     -3.543471   -0.366835   -1.627229
H     -2.132409    0.700448   -2.210142
H     -3.091507   -1.965427    0.099859
H     -3.249292   -0.552139    1.169696
H     -1.781093   -1.672672    1.274003
H      3.700516   -0.036314   -1.265395
H      2.731206   -1.528746   -1.410301
H      3.615330   -1.255248    0.107312
H      0.463269   -1.431862    0.738805
H      0.470526   -1.329856   -1.090631
H      3.034733    1.585392    0.405998
H     -1.262534    1.822263    1.176347
H     -0.361447    0.493927    1.983994
H     -0.260707    0.976133   -1.024148
