51

C      5.092142   -0.786414   -2.299309
C      1.032452   -1.908100    1.878949
C     -1.691116   -2.681141    1.803986
C     -3.145687    0.589037   -2.350398
C     -2.250003    2.594317   -1.263257
C      4.174886    1.700515   -0.733682
C      5.211546   -0.548740   -1.010688
C     -4.605846   -0.038329    0.110992
C     -3.672969   -1.169752    0.348813
C      1.904431    0.470274    0.467946
C     -3.979993    1.293377   -0.153995
C      2.797120   -0.350577   -0.425037
C     -0.447798    0.756251   -0.241381
C      0.034172   -1.099377    1.116318
C     -1.305849   -1.469632    1.073567
C      0.497078    0.018927    0.462594
C     -2.244545   -0.734322    0.372407
C     -1.775095    0.383976   -0.279782
C     -2.763343    1.205084   -1.043627
C      4.202109    0.255403   -0.293781
O      4.525420    0.275010    1.081991
H      5.828256   -1.372213   -2.819547
H      4.255067   -0.398345   -2.856324
H      1.885726   -1.322675    2.221044
H      1.356392   -2.726529    1.192621
H      0.518845   -2.447174    2.725620
H     -1.637554   -2.466851    2.892317
H     -2.608390   -3.162996    1.475103
H     -0.872384   -3.439465    1.620857
H     -2.261489    0.490511   -3.018106
H     -3.852665    1.276096   -2.847590
H     -3.626301   -0.387177   -2.285345
H     -3.150783    3.268148   -1.339395
H     -1.662422    2.689792   -2.203127
H     -1.684871    2.990040   -0.384102
H      3.550164    1.870039   -1.632105
H      5.241505    1.971210   -0.960276
H      3.869082    2.337021    0.109840
H      6.068172   -0.958096   -0.491485
H     -5.242634    0.101779    1.037772
H     -5.349441   -0.302512   -0.676897
H     -3.939708   -1.630355    1.347784
H     -3.846289   -1.920912   -0.455728
H      2.374441    0.488291    1.471919
H      1.999686    1.524490    0.101656
H     -3.692434    1.753463    0.803403
H     -4.746664    1.935666   -0.642573
H      2.886051   -1.391514   -0.081899
H      2.463889   -0.322365   -1.472767
H     -0.088358    1.650925   -0.767123
H      4.375999    1.145920    1.489698
