34

C     -3.127283    0.324961    0.631154
C     -2.556743   -0.308545   -1.652387
C     -2.022481   -1.816446    0.195726
C     -0.314251    1.260874    1.620914
C     -0.285309    1.821096   -1.336317
C      3.075787   -0.388030   -1.015962
C      4.357995   -0.282167   -0.183593
C      2.047997   -0.311394    0.119799
C      2.690962   -1.220681    1.098675
C     -2.073927   -0.363860   -0.206613
O      2.134424   -1.921267    1.974029
O      4.057315   -1.167847    0.880137
O      0.800227   -0.718504   -0.276085
Si    -0.409058    0.453772   -0.052174
H     -3.968917   -0.399831    0.792774
H     -2.752374    0.634037    1.625865
H     -3.538072    1.201916    0.082154
H     -1.941369   -1.000523   -2.229572
H     -3.625668   -0.564160   -1.643123
H     -2.452502    0.720573   -2.048928
H     -1.697578   -2.421585   -0.692386
H     -1.339925   -1.988076    1.030005
H     -3.052930   -2.163291    0.474677
H      0.689668    1.725588    1.708516
H     -0.540049    0.570462    2.445834
H     -1.095316    2.053199    1.647319
H     -0.535028    1.452205   -2.345749
H      0.732768    2.262961   -1.277947
H     -0.989593    2.626194   -1.024715
H      2.974242    0.450577   -1.717226
H      3.032851   -1.383438   -1.469896
H      4.408252    0.742359    0.190927
H      5.229897   -0.596695   -0.766442
H      2.085986    0.715567    0.525225
