47

C     -2.137328   -2.085203    1.850617
C     -2.957508   -2.842866   -0.308021
C     -2.512918    3.764938   -0.932122
C     -3.550961    3.601925   -0.042045
C      5.296201    0.903644    1.097981
C     -1.684268    2.727577   -1.267507
C     -3.729199    2.349469    0.504040
C      4.852794   -0.480052    0.955735
C     -0.563199   -2.752876    0.056585
C      4.194002    1.750374    0.554028
C      0.687998   -2.505861   -0.287645
C     -0.068500    0.191873   -1.782830
C     -1.845705    1.461366   -0.730386
C     -1.193728    0.254669   -0.877283
C     -2.904229    1.307582    0.172878
C      3.626813   -0.490361    0.392684
C      1.279765   -0.104160   -1.254005
C     -1.855978   -0.634247   -0.064049
C      2.738808   -1.589018    0.033399
C      1.884148    1.000724   -0.474892
C     -1.832801   -2.059701    0.342519
N     -2.878032    0.033231    0.552008
N      3.179194    0.827534    0.128329
N      1.455446   -1.348277   -0.567510
O      3.066939   -2.772983    0.237449
O      1.285370    2.072978   -0.337651
H     -1.519090   -2.910870    2.284196
H     -1.723712   -1.150755    2.282814
H     -3.200357   -2.194845    2.053640
H     -3.200279   -2.329782   -1.257763
H     -3.858543   -2.838784    0.321183
H     -2.629619   -3.858370   -0.561645
H     -2.367165    4.733619   -1.361002
H     -4.209726    4.423642    0.225685
H      6.243860    1.017056    0.500177
H      5.533606    1.176174    2.162374
H     -0.866581    2.871786   -1.972969
H     -4.544792    2.204389    1.208847
H      5.416786   -1.361832    1.254207
H     -0.697311   -3.832791    0.163652
H      3.742990    2.387158    1.353073
H      4.543659    2.418494   -0.257636
H      1.329153   -3.410201   -0.376264
H     -0.248011   -0.577500   -2.611543
H      0.053439    1.135793   -2.400536
H      1.944724   -0.122496   -2.203060
H     -3.576155   -0.362167    1.240267
