47

C     -3.995933    2.952633   -1.456701
C      5.013186   -2.316668    0.813107
C      1.901263    1.479345    3.378811
C     -2.187107    0.856782    1.627654
C     -2.297771    2.145373    1.236172
C     -2.510378   -1.340795    0.416307
C     -1.931191   -1.980361   -0.829846
C      2.382340   -1.600212   -0.206947
C      0.914297    0.275931    1.118706
C     -1.023823    1.546324   -0.792325
C     -0.488249   -1.199347   -2.476654
C     -1.983097   -0.159468    0.603125
C     -2.188715    2.283529   -0.242851
C      1.112290   -1.253785   -0.698039
C      0.385890   -0.321142   -0.036282
C      0.684804   -1.958998   -1.918516
C      2.918049   -1.030127    0.919202
C      2.160343   -0.084999    1.573465
C     -0.971712    0.086759   -0.499381
N     -1.464963   -0.786940   -1.540294
O      1.687022   -1.963461   -2.898309
O     -3.364940    1.864627   -0.867959
O      4.176738   -1.369958    1.410514
O      2.681622    0.507196    2.716562
H     -3.371765    3.448374   -2.218442
H     -4.242346    3.748046   -0.705756
H     -4.914557    2.578200   -1.953512
H      4.546711   -3.280063    0.615113
H      5.315196   -1.899550   -0.188101
H      5.951955   -2.379785    1.395080
H      0.926293    1.010890    3.618471
H      1.697549    2.367667    2.728887
H      2.422517    1.848243    4.273251
H     -2.265459    0.639260    2.662773
H     -2.441441    2.956286    1.863164
H     -3.260580   -1.783934    1.089590
H     -1.108263   -2.653952   -0.540217
H     -2.734150   -2.510352   -1.377601
H      2.950587   -2.329263   -0.723030
H      0.339274    1.032820    1.665873
H     -1.126217    1.616500   -1.926332
H     -0.048301    2.059943   -0.615347
H     -0.042125   -0.255283   -2.915085
H     -1.010472   -1.774255   -3.283324
H     -2.122532    3.392656   -0.416869
H      0.463462   -3.032424   -1.739723
H      2.464697   -1.432262   -2.658387
