35

C     -6.297705    0.313618   -1.038505
C     -0.398299    0.395654    0.943373
C     -1.713547    0.951958    0.479583
C      0.192675   -0.469098   -0.112053
C     -2.713423   -0.127050    0.167334
C      3.399273   -2.005819   -0.289508
C      3.837676   -0.826878    0.529348
C      1.529289   -1.053277    0.282889
C     -4.015773    0.465175   -0.279526
C      2.556390    0.019181    0.574462
C      4.189196    0.996673   -0.750331
N      4.784725    0.019870   -0.146351
N      2.769376    0.903258   -0.539031
O     -4.088644    1.715625   -0.329082
O      4.866384    1.968867   -1.483492
O     -5.095408   -0.312410   -0.624382
O      2.116290   -1.746987   -0.747996
H     -7.122908   -0.156150   -0.446040
H     -6.297038    1.407759   -0.826824
H     -6.482702    0.195769   -2.123388
H      0.272836    1.241262    1.200814
H     -0.594437   -0.234764    1.841488
H     -2.110352    1.564408    1.338241
H     -1.580319    1.631813   -0.388823
H      0.278977    0.005130   -1.093147
H     -0.478272   -1.373344   -0.230284
H     -2.336933   -0.787337   -0.661390
H     -2.927282   -0.773725    1.040168
H      3.400146   -2.962508    0.283517
H      4.065761   -2.151628   -1.163037
H      4.155021   -1.120630    1.544316
H      1.461513   -1.698456    1.172021
H      2.420317    0.513264    1.535131
H      2.075481    1.423316   -1.139139
H      5.881717    2.067461   -1.410355
