37

C     -2.966819    1.525642   -1.564743
C     -4.363211    0.289912   -0.026101
C      5.733204    0.111130    0.077674
C     -2.677172   -1.448156   -1.624176
C      3.543636    0.276501    1.260715
C      3.605250   -0.566859   -0.971411
C     -2.929094    0.671183   -0.315426
C      4.252540   -0.057757    0.141338
C      2.145031    0.113964    1.313582
C      1.561784   -0.394120    0.187132
C      0.116507   -0.646056    0.158624
C      1.442630    0.534583    2.514608
C     -1.931676   -1.320750    0.743982
C     -2.114883   -0.580032   -0.520385
N      2.294494   -0.719414   -0.918974
N     -0.545407   -1.232719    1.072185
N     -0.750945   -0.267613   -0.914878
O      0.214648    0.518764    2.659370
O      2.175873    0.998600    3.611058
O     -2.754089   -1.943170    1.474482
H     -2.978268    2.579086   -1.222195
H     -3.892930    1.368462   -2.154953
H     -2.113206    1.339297   -2.236680
H     -4.882819    0.135300   -0.997790
H     -4.828171    1.179594    0.468086
H     -4.412081   -0.596590    0.597077
H      6.238388   -0.849702    0.242862
H      5.953876    0.513194   -0.922531
H      6.075077    0.821463    0.859403
H     -3.523192   -2.069170   -1.254523
H     -2.919842   -0.824798   -2.486555
H     -1.860872   -2.146004   -1.918011
H      4.022378    0.679584    2.152341
H      4.208006   -0.821378   -1.847357
H     -2.493674    1.228908    0.532571
H     -0.391085    0.153462   -1.797182
H      1.746113    1.445657    4.417400
