26

C     -3.042003    0.395390    0.896652
C     -0.562897   -1.216965    1.105344
C      0.306454   -2.046935    0.497281
C      1.296139    0.761348   -1.711489
C      2.513872    0.977792   -1.278765
C     -1.674418    1.005873    1.194564
C     -0.580274    0.173097    0.572403
C      0.452290   -0.405458   -1.384034
C      1.127854   -1.477715   -0.614251
C      3.099551   -0.016960   -0.392852
O     -1.597285    2.280155    0.638687
O      4.263169    0.178715    0.027617
O     -0.717270    0.081466   -0.795145
O      2.370135   -1.111410   -0.057047
H     -3.799398    1.153316    1.171430
H     -3.093172    0.074184   -0.145850
H     -3.150177   -0.472340    1.604139
H     -1.160553   -1.591847    1.898596
H      0.380864   -3.077187    0.825829
H      0.875310    1.519652   -2.375295
H      3.055698    1.879514   -1.583031
H     -1.581661    1.008702    2.299292
H      0.377962    0.647671    0.803298
H      0.113714   -0.819008   -2.381501
H      1.348790   -2.356498   -1.290373
H     -0.622694    2.455450    0.474504
