43

C      0.154647   -3.366119    0.384186
C     -1.675525    2.784461    0.106927
C      2.700482   -0.592752   -0.359152
C      1.973242    0.586443   -0.906108
C      1.912971   -1.864991   -0.296831
C      2.838557    1.814414   -0.944928
C     -3.234231   -0.691570    0.168832
C      0.709421   -1.889066    0.570174
C     -1.749358    1.281399    0.186698
C     -3.185219    0.817077    0.149955
C     -2.483106   -1.128264    1.423421
C      4.012702    1.651977   -1.808005
C     -1.060868   -0.603761    1.349736
O     -3.837397    1.234294   -1.004896
O     -3.067356   -0.586513    2.575078
O      4.294326    0.647345   -2.488281
O      4.903721    2.731134   -1.874171
O     -0.366703   -1.143392    0.276599
O     -1.028897    0.754877    1.226032
H      0.968735   -4.075712    0.490943
H     -0.351308   -3.422463   -0.596908
H     -0.608279   -3.557231    1.161932
H     -1.008105    3.141853   -0.702384
H     -1.388285    3.214817    1.098984
H     -2.680705    3.248800   -0.116357
H      3.720659   -0.752236   -0.784429
H      2.929021   -0.321934    0.726995
H      1.602574    0.361373   -1.940109
H      1.109429    0.810298   -0.265028
H      1.673233   -2.197496   -1.352570
H      2.665121   -2.663295    0.018178
H      2.176211    2.651991   -1.276264
H      3.204341    2.019725    0.097830
H     -2.634482   -1.091874   -0.684315
H     -4.248725   -1.084932    0.198741
H      1.021887   -1.943010    1.633589
H     -1.275829    0.892910   -0.752100
H     -3.766913    1.180136    1.013932
H     -2.558575   -2.207881    1.479361
H     -0.521632   -0.898711    2.272940
H     -4.798090    1.277444   -0.806513
H     -2.818174    0.368391    2.684595
H      5.776479    2.612041   -2.336309
