42

C     -3.725236    0.525700    1.049406
C      3.580303   -1.228067    0.790269
C     -3.835475   -0.875541    0.589118
C      3.923736    0.161036    1.206495
C      2.814367   -1.206204   -0.532216
C     -2.334203    1.098034    1.008649
C     -2.883167   -1.270548   -0.498880
C      2.848292    1.173459    1.055753
C      0.251608    0.969049   -1.792433
C     -0.677739   -1.225190   -1.332250
C      0.616822   -0.463673   -1.443062
C     -0.494117    1.514920   -0.595411
C      1.474445   -0.568984   -0.230454
C     -1.708907    0.712785   -0.337221
C      0.483653    1.540147    0.526259
N     -1.560257   -0.698844   -0.327471
N      1.630130    0.699028    0.450174
O      0.277147    2.302872    1.516483
H     -4.395768    1.214574    0.464741
H     -4.068248    0.578467    2.107619
H      4.515491   -1.788614    0.595090
H      2.948069   -1.768014    1.523623
H     -3.719582   -1.604978    1.441535
H     -4.865737   -1.045212    0.209586
H      4.198396    0.119028    2.301798
H      4.876524    0.449236    0.697701
H      3.372320   -0.701426   -1.324902
H      2.638188   -2.244178   -0.819207
H     -2.361655    2.195903    1.052467
H     -1.702647    0.661541    1.804410
H     -2.857610   -2.387876   -0.538804
H     -3.312607   -0.950886   -1.485705
H      3.274835    2.016333    0.435582
H      2.587058    1.669348    2.028718
H     -0.330124    0.976876   -2.713373
H      1.212573    1.528361   -1.891262
H     -0.417830   -2.269637   -1.053454
H     -1.130772   -1.253202   -2.345800
H      1.164204   -0.864998   -2.320464
H     -0.806552    2.566034   -0.802068
H      0.975199   -1.247563    0.501792
H     -2.475130    0.990903   -1.097479
