35

C     -5.603367    1.245142   -0.321281
C     -0.493700   -1.284659   -0.055954
C     -1.825711   -0.568309   -0.142808
C      0.569018   -0.262810   -0.482915
C     -2.967899   -1.471779    0.255304
C      2.922853   -0.496988    1.539430
C      3.921188   -0.136214    0.467271
C      1.895732   -0.970545   -0.398171
C     -4.232190   -0.737160    0.155817
C      3.040777   -0.088513   -0.790030
C      3.720862    2.022187   -0.135135
N      4.416778    1.214914    0.577532
N      2.689102    1.314316   -0.798407
O     -5.334129   -1.303064    0.444742
O      4.010084    3.386312   -0.189923
O     -4.327521    0.591333   -0.248153
O      2.098222   -1.391400    0.904795
H     -5.805200    1.612895    0.710164
H     -6.387176    0.555326   -0.676651
H     -5.462226    2.130125   -0.960002
H     -0.460671   -2.176777   -0.679415
H     -0.320582   -1.523706    1.017311
H     -1.848368    0.300038    0.539545
H     -2.032064   -0.201311   -1.169038
H      0.360839    0.028602   -1.537955
H      0.507011    0.637232    0.137790
H     -2.817335   -1.794604    1.321155
H     -2.933984   -2.392955   -0.360738
H      2.396989    0.430502    1.865908
H      3.383789   -0.977634    2.421607
H      4.692637   -0.900777    0.396345
H      1.828768   -1.856071   -1.079471
H      3.583306   -0.405993   -1.683461
H      1.830592    1.748816   -1.214778
H      4.983578    3.723530   -0.164949
