47

C     -6.521295   -0.578667    1.099512
C     -6.297867    0.753107    1.365505
C     -5.427122   -1.337228    0.772091
C      2.592424   -1.004385   -0.825076
C      6.271512    0.719547    0.369856
C     -5.052171    1.309428    1.310438
C     -4.165051   -0.772519    0.716747
C      1.162846   -1.331435   -1.083215
C      3.224419   -1.451130    0.232920
C      4.991736    0.160243   -0.135763
C      6.787330    0.361236    1.513474
C     -2.591227    1.078614    0.919757
C     -2.088459    1.707937   -0.297289
C     -1.109995   -0.357789   -1.404442
C     -3.939839    0.556647    0.981461
C      0.342019   -0.029809   -1.142523
C     -2.008083    0.829579   -1.503936
C      4.648819   -1.148399    0.527058
C      6.111879   -0.618955    2.349557
O      0.579390    0.648186    0.025349
O     -3.302314    0.310029   -1.773545
O      6.608158   -0.977518    3.472034
O      4.915422   -1.155217    1.898564
H     -7.510321   -1.027735    1.141410
H     -7.160434    1.356529    1.625019
H     -5.553002   -2.397366    0.552843
H      3.141795   -0.380215   -1.521530
H      6.776539    1.442403   -0.239052
H     -4.888459    2.352814    1.520470
H     -3.376714   -1.467871    0.457613
H      0.750188   -1.942539   -0.269784
H      1.089403   -1.848384   -2.043541
H      2.645486   -2.083639    0.926587
H      5.120301    0.021114   -1.236168
H      4.196368    0.894511    0.081237
H      7.723153    0.764991    1.891581
H     -2.466479    1.766726    1.809868
H     -1.886380    0.231660    1.178047
H     -1.079659    2.129057   -0.105752
H     -2.673080    2.616558   -0.622626
H     -1.436413   -1.149014   -0.711426
H     -1.161812   -0.861046   -2.426046
H      0.739138    0.552369   -1.990208
H     -1.684211    1.397504   -2.414136
H      5.246054   -1.970838    0.054280
H      1.379037    1.218430   -0.046305
H     -3.663027    0.712475   -2.601895
