39

C      4.443619    0.916237   -0.211800
C     -0.687611   -2.867044   -0.534005
C     -0.738777    0.796538    1.585432
C      1.519515    1.823405   -0.107279
C      0.021399    1.960284   -0.420491
C     -3.050331   -0.207102    0.141521
C      3.369638    0.178077   -0.423527
C     -1.041847   -1.650303   -0.171340
C      1.982169    0.559315   -0.705642
C     -2.341594   -1.470326    0.527776
C     -2.143675    0.835156   -0.455481
C     -0.156697   -0.531875   -0.469103
C      1.251998   -0.627050   -0.047807
C      3.350023   -1.284925   -0.418080
C     -0.734689    0.749014    0.099244
O     -3.170401   -2.568671    0.284192
O     -2.659057    2.108334   -0.268511
O      4.359135   -2.046707   -0.305979
O      2.003526   -1.688318   -0.560349
H      4.379416    1.995017   -0.231686
H      5.395258    0.457511   -0.017034
H      0.233903   -3.095242   -1.044770
H     -1.343980   -3.694503   -0.316042
H     -0.193536    1.691373    1.947608
H     -1.752173    0.865727    2.032109
H     -0.249564   -0.068479    2.077098
H      2.002365    2.675838   -0.634857
H      1.701979    1.911964    0.972764
H     -0.080893    2.031326   -1.506141
H     -0.348269    2.852770    0.102276
H     -3.844061   -0.424540   -0.603768
H     -3.557330    0.253531    1.014877
H      1.726642    0.540238   -1.778769
H     -2.142541   -1.463441    1.617963
H     -2.061263    0.650877   -1.548461
H     -0.168624   -0.388605   -1.581714
H      1.427662   -0.584166    1.042241
H     -3.069972   -3.276669    0.966460
H     -3.631362    2.085434   -0.048923
