39

C      1.353355   -2.452894    1.352458
C      2.583698   -1.534815   -0.510462
C     -1.233250   -2.645423   -0.819136
C     -0.630578    2.824045    1.168732
C     -2.442337   -0.702341    0.214002
C     -2.152793    0.767994    0.348343
C      1.885812    1.359212   -0.486048
C      1.018785    2.613887   -0.659400
C      1.459869   -1.490287    0.447575
C     -1.555922   -1.193549   -0.877851
C     -1.006498    1.073587   -0.608075
C      1.005177    0.941394    0.658676
C      0.430231   -0.428377    0.458556
C     -0.355983   -0.291064   -0.801464
C     -0.022697    1.922879    0.155916
H      0.564508   -2.504639    2.094829
H      2.091954   -3.237946    1.359125
H      3.130032   -2.489906   -0.368740
H      2.235580   -1.565755   -1.568509
H      3.349209   -0.745144   -0.335470
H     -2.044504   -3.191728   -1.384145
H     -0.304555   -2.856705   -1.383794
H     -1.225527   -3.084736    0.186209
H     -0.106288    3.809524    1.213915
H     -0.650601    2.433626    2.188409
H     -1.682187    3.063144    0.865540
H     -3.504050   -0.856378   -0.049692
H     -2.259150   -1.256095    1.172992
H     -3.045158    1.389031    0.142205
H     -1.852292    0.956920    1.411487
H      2.928937    1.601044   -0.183953
H      1.843884    0.786157   -1.408706
H      1.488801    3.444956   -0.108034
H      0.751461    2.836583   -1.710905
H     -2.058562   -0.985328   -1.846623
H     -1.342155    1.519770   -1.545461
H      1.432056    1.150743    1.650683
H     -0.280182   -0.605385    1.293616
H      0.201922   -0.376003   -1.726800
