27

C     -2.573089    0.303367    0.356321
C      1.819790   -1.311684    0.156817
C     -1.824993   -1.014946    0.601740
C      0.373044   -1.784378   -0.027467
C     -1.477821    1.259162   -0.143036
C      1.966633    0.158386   -0.012510
C     -0.465959    0.280949   -0.631710
C      0.898717    0.805841   -0.836479
N     -0.443579   -0.697731    0.467202
O     -1.038856    2.064500    0.884675
O      2.104322    0.842684    1.197881
O      1.243659    0.586920   -2.191453
H     -3.071151    0.673529    1.247987
H     -3.250764    0.154718   -0.501272
H      2.460470   -1.915281   -0.502693
H      2.132102   -1.586162    1.207063
H     -2.087654   -1.776341   -0.148613
H     -2.032620   -1.313487    1.643799
H      0.253029   -1.874836   -1.146921
H      0.181202   -2.743489    0.443685
H     -1.842256    1.874223   -0.983710
H      2.940942    0.332850   -0.558436
H     -0.893269   -0.258163   -1.495317
H      0.935216    1.900036   -0.678216
H     -1.158514    3.029744    0.639026
H      2.666765    1.645087    1.062839
H      2.184637    0.364500   -2.299251
