75

C      7.800359   -0.442129   -1.710993
C     -7.084402    2.657952   -2.608814
C     -4.782375    3.344787   -1.747222
C      5.723882   -1.358207    0.117878
C      5.181571   -1.285764   -2.313855
C      6.720185    0.268575   -1.306250
C      0.728369    3.130984   -0.050945
C      1.676742    4.117876   -0.206389
C     -5.901197   -0.827945    1.843881
C     -5.667364   -0.198928    0.633042
C      1.103529    1.814544   -0.149710
C     -4.816318   -1.303006    2.551696
C      2.997707    3.819591   -0.459802
C     -5.464380    1.042033   -1.726115
C     -4.179643    0.613958   -1.137851
C      2.443940   -1.086983   -0.465279
C     -1.710597   -2.854258    1.982568
C     -5.775068    2.281215   -2.017360
C     -4.380140   -0.065412    0.173319
C      2.415948    1.484662   -0.401544
C      3.028435    0.239097   -0.559114
C     -3.526659   -1.165416    2.083965
C      3.330739    2.474452   -0.551593
C      2.245214   -1.665334    0.910498
C     -0.212816   -2.701044    2.156217
C     -3.278897   -0.533161    0.865331
C      4.363717    0.516600   -0.815946
C      0.586963   -3.453746    1.192433
C      1.369693   -0.871702    1.800820
C     -1.261052   -0.567522    1.948321
C      5.437817   -0.447395   -1.079566
C     -2.216325   -1.571739    2.617293
N      4.503788    1.844770   -0.802747
N      1.638789   -2.980903    0.674974
N     -1.874202   -0.521726    0.625214
N     -0.005476   -1.283778    1.951119
O      0.222897   -4.755394    0.787732
O      1.779844    0.140388    2.426717
O     -2.128460   -1.538863    3.980271
H      8.744805    0.051952   -1.883663
H      7.721924   -1.514297   -1.861461
H     -7.888754    2.359847   -1.876097
H     -7.317442    2.104268   -3.538999
H     -7.165919    3.743007   -2.741467
H     -3.902138    3.182890   -2.414925
H     -4.481834    3.283883   -0.659990
H     -5.143509    4.352893   -1.951372
H      5.585105   -0.864407    1.072768
H      5.107382   -2.270980   -0.015376
H      6.775748   -1.684678    0.024518
H      4.334127   -0.890109   -2.887336
H      5.050268   -2.371456   -2.035115
H      6.060245   -1.265167   -2.985658
H      6.905004    1.313384   -1.181158
H     -0.324131    3.410915    0.151546
H      1.414451    5.175933   -0.134280
H     -6.919700   -0.945627    2.230725
H     -6.530927    0.176723    0.075530
H      0.346605    1.059320   -0.031804
H     -5.009030   -1.799388    3.509167
H      3.735207    4.599927   -0.580348
H     -6.211964    0.266601   -1.934567
H     -3.777185   -0.189666   -1.821463
H     -3.433410    1.419246   -1.102763
H      1.385588   -0.988067   -0.874463
H      2.887671   -1.830830   -1.164677
H     -2.011240   -2.834843    0.915713
H     -2.139311   -3.693665    2.532227
H      3.247263   -1.808800    1.412197
H      0.002075   -3.000409    3.208941
H     -1.246416    0.390175    2.462937
H      5.372777    2.443678   -0.957078
H     -1.453419   -0.487904   -0.322642
H      0.609946   -5.194368   -0.021644
H     -1.364622   -2.011108    4.344238
