70

C      5.509953    2.956192   -2.302270
C      1.532764   -4.734515   -0.639257
C      4.111357   -0.644329    1.107538
C     -1.851392   -4.169266    0.336091
C     -4.006883   -0.240401   -0.994238
C      4.519262    3.540675   -1.911551
C      3.311492    4.226594   -1.427790
C     -5.271516    3.799135    1.310329
C      2.485271    3.236954   -0.591811
C     -3.945522    4.136431    1.193739
C     -5.624080    2.469806    1.490428
C     -2.925628    3.210168    1.246627
C     -4.592852    1.564691    1.540104
C      2.150981    2.112973   -1.517410
C      2.179664   -2.624693    0.511078
C      2.769152   -1.802180   -0.577061
C     -0.061041   -2.803029   -0.648775
C      2.084824    0.444180    0.320038
C     -2.258626    0.843449    1.506050
C      1.016376   -3.492404    0.100874
C      3.233277   -0.434864   -0.125318
C     -1.349014   -2.728533    0.161293
C     -3.259245    1.886358    1.424841
C      1.312173    1.015587   -0.843590
C     -1.802389    0.212489    0.221266
C     -2.377040   -2.016225   -0.629789
C     -1.193479    1.234073   -0.698068
N     -2.718024   -0.627761   -0.447878
O     -2.978857   -2.707293   -1.520920
O     -2.016557    1.672674   -1.547410
O      0.099647    1.567351   -0.538566
H      6.364746    2.438302   -2.629090
H      2.390372   -5.113597   -0.058650
H      1.802133   -4.451841   -1.676347
H      0.718140   -5.478561   -0.616432
H      3.536667   -0.462014    2.036556
H      4.902414    0.159296    1.063179
H      4.528690   -1.651504    1.154492
H     -1.489621   -4.594372    1.295630
H     -2.970427   -4.169076    0.408891
H     -1.587714   -4.797192   -0.537130
H     -4.783000   -0.701123   -0.363914
H     -4.123613    0.824637   -1.194576
H     -4.136589   -0.736789   -1.995191
H      2.726704    4.541660   -2.318881
H      3.647284    5.074667   -0.807277
H     -6.084475    4.522312    1.269801
H      1.613679    3.796020   -0.227510
H      3.180747    2.909245    0.206511
H     -3.695629    5.189703    1.052914
H     -6.642975    2.140284    1.588328
H     -1.876695    3.534753    1.147636
H     -4.878654    0.517439    1.685508
H      1.601259    2.540058   -2.381307
H      3.090313    1.698748   -1.922892
H      2.975657   -3.359338    0.845418
H      1.898932   -2.098082    1.428552
H      2.130393   -1.655472   -1.470877
H      3.695191   -2.303202   -0.995044
H      0.155541   -1.817725   -1.051557
H     -0.317052   -3.457587   -1.534836
H      1.393348   -0.224368    0.875679
H      2.424309    1.222365    1.038970
H     -1.329804    1.299296    1.964042
H     -2.522002    0.019642    2.214457
H      0.575969   -3.895877    1.048721
H      3.840016    0.041053   -0.918474
H     -1.201708   -2.357478    1.177019
H      1.307636    0.194857   -1.621120
H     -0.944226   -0.443423    0.571572
