27

C     -1.211962    1.357883   -0.666581
C     -0.698263    0.838050    1.666604
C      1.770777    1.303047    0.135239
C      0.015542   -1.974777    0.358846
C      1.233634   -1.105863    0.598618
C     -1.122216   -1.036740    0.052686
C     -1.374272   -1.117829   -1.411743
C      0.842140   -0.197385   -1.610556
C     -0.554034    0.372714    0.268092
C      0.877571    0.146393   -0.164164
O     -2.476069   -1.527912   -1.832056
O      1.872369   -0.018260   -2.284855
O     -0.318564   -0.713639   -2.219580
H     -0.565802    1.567661   -1.549164
H     -2.234116    1.023892   -0.979262
H     -1.377980    2.358143   -0.174218
H     -0.755228    1.959371    1.652427
H      0.099828    0.557280    2.353625
H     -1.686654    0.502907    2.069963
H      2.310689    1.563158   -0.820655
H      2.563653    0.950486    0.827880
H      1.252176    2.201776    0.486879
H     -0.194245   -2.656267    1.198791
H      0.275837   -2.626624   -0.517746
H      2.163023   -1.572963    0.230710
H      1.310439   -0.944059    1.677238
H     -2.018272   -1.210441    0.652983
