60

C      8.614705   -0.360865   -0.265817
C      7.549669    0.452800    0.399167
C      6.302080    0.601963   -0.445710
C      5.678968   -0.737991   -0.764388
C      5.272326   -1.497885    0.427751
C      4.323573   -0.977348    1.402212
C      2.934609   -0.647888    1.095971
C      2.737671    0.433467    0.102522
C      0.614796    1.661405    0.655658
C      0.597984    0.021664   -1.091661
C     -0.729893    1.913635    0.448674
C     -0.759560    0.294518   -1.281277
C     -2.867958    1.459591   -0.788158
C     -3.752846    0.569363    0.029612
C     -5.512743    0.625416   -1.748362
C     -6.081153   -0.101651    0.499243
C      1.269447    0.721376   -0.111465
C     -1.428849    1.230790   -0.523315
C     -5.195446    0.860565   -0.291444
N     -5.567239    2.206955    0.053696
O     -6.900381    0.823524   -1.884868
O     -7.827981   -1.724021    2.040648
O     -5.775766   -3.523553    2.039687
O     -7.423182   -3.402554    0.035710
O     -5.757650   -1.424650    0.197816
P     -6.705866   -2.514960    1.043909
H      8.447249   -0.499747   -1.348658
H      8.705180   -1.344411    0.268812
H      9.587183    0.165550   -0.156835
H      7.921939    1.478713    0.608325
H      7.268883    0.025733    1.384134
H      6.573411    1.153493   -1.356648
H      5.588142    1.184608    0.163534
H      6.576366   -1.353472   -1.195120
H      5.026089   -0.646722   -1.612462
H      6.246717   -1.699172    1.008440
H      4.999097   -2.582603    0.148825
H      4.815400   -0.091694    1.922630
H      4.304800   -1.743128    2.269222
H      2.307647   -1.564361    0.843478
H      2.399361   -0.288254    2.042227
H      3.125610    0.132509   -0.881313
H      3.235108    1.369091    0.415561
H      1.200017    2.170718    1.403218
H      1.108342   -0.726548   -1.706031
H     -1.225511    2.646285    1.051721
H     -1.242718   -0.283865   -2.066141
H     -3.139015    2.517644   -0.592750
H     -3.049055    1.250147   -1.856901
H     -3.550535   -0.497701   -0.247895
H     -3.549202    0.679909    1.103592
H     -5.014567    1.449698   -2.335106
H     -5.186014   -0.345325   -2.124796
H     -5.918680    0.117244    1.583473
H     -7.144084    0.111600    0.287439
H     -5.985778    2.303975    0.988978
H     -6.021134    2.737094   -0.698273
H     -7.214982    0.561855   -2.779479
H     -8.401751   -1.099295    1.512811
H     -6.402831   -4.253234    2.341354
