48

C      2.306220    0.360267    1.281241
C     -1.641183   -0.266463    1.176652
C      4.433855   -0.726719    1.592392
C     -3.900966    0.128542    2.097726
C      3.311753   -0.314511    0.704446
C     -3.051846    0.270631    0.856501
C      1.203911    0.736499    0.310998
C     -0.875495   -0.538335   -0.063941
C      3.356607   -0.626413   -0.729168
C     -3.691697   -0.554941   -0.225277
C      1.975607    1.428182   -0.786021
C     -1.507435    0.001873   -1.329669
C      2.811204    0.483094   -1.600749
C     -2.872504   -0.688417   -1.473049
N      0.539043   -0.450159   -0.011052
O      5.654982   -0.161285    1.147128
O     -5.181324    0.633200    1.761309
O      2.785274   -1.845124   -1.086525
O     -4.934541   -0.012363   -0.493290
O      1.211902    2.276978   -1.567669
O     -1.740010    1.344983   -1.334990
O      3.855678    1.260977   -2.143084
O     -2.630437   -2.038324   -1.764522
H      2.294657    0.607586    2.320080
H     -1.194907    0.485814    1.845699
H     -1.831629   -1.161555    1.814170
H      4.519952   -1.805215    1.654115
H      4.309769   -0.254258    2.618424
H     -3.496600    0.853517    2.861614
H     -3.940817   -0.904135    2.474776
H     -3.017270    1.351196    0.622691
H      0.637714    1.515354    0.830463
H     -1.068744   -1.662514   -0.227064
H      4.437651   -0.744489   -1.058974
H     -3.853506   -1.580576    0.218374
H      2.710978    2.115398   -0.268920
H     -0.892670   -0.363886   -2.179665
H      2.225246    0.128833   -2.461858
H     -3.416102   -0.272113   -2.336910
H      0.836775   -1.229405    0.668739
H      5.954478   -0.630062    0.318941
H     -5.019711    1.500999    1.319234
H      3.115453   -2.606627   -0.583133
H     -4.929819    0.424386   -1.377828
H      1.555627    2.341332   -2.477728
H     -1.970661    1.642989   -2.249120
H      4.060495    2.032870   -1.556868
H     -3.444954   -2.487613   -2.128969
