53

C      6.675115    0.429987   -1.089410
C     -6.434596    0.077190   -1.006000
C      6.360131   -0.212323    0.240842
C      4.816015   -0.087671    0.409619
C      4.475968    1.358508    0.390110
C      3.039036    1.698039    0.488066
C      2.248618    1.357052    1.674927
C      2.056028   -0.037405    2.096029
C      1.433045   -0.941164    1.052884
C      0.051160   -0.397497    0.676437
C     -0.600165   -1.263907   -0.354443
C     -1.963316   -0.662584   -0.715235
C     -2.882093   -0.568816    0.425838
C     -5.072534   -0.648779   -0.884847
C     -4.214061    0.019993    0.109092
C     -4.502989   -0.695650   -2.268480
C     -4.988209    0.233547    1.381426
O     -3.972725    0.322634   -2.758712
O     -4.565014   -1.857688   -3.009728
O     -4.460332   -0.159089    2.446357
O     -6.226981    0.828278    1.437534
H      7.578167   -0.059514   -1.510702
H      5.816675    0.329862   -1.753450
H      6.914499    1.519031   -0.976427
H     -6.354871    1.147257   -0.849117
H     -6.815129   -0.153089   -2.024788
H     -7.105933   -0.404203   -0.293671
H      6.560761   -1.303670    0.140628
H      6.875500    0.241216    1.088314
H      4.617076   -0.557082    1.365626
H      4.414154   -0.638236   -0.462654
H      4.953148    1.842914   -0.519117
H      5.009100    1.901284    1.235142
H      2.493540    1.420439   -0.477826
H      3.010799    2.850673    0.425728
H      1.253539    1.893439    1.678974
H      2.773509    1.873507    2.558729
H      2.849707   -0.539368    2.615769
H      1.203462    0.017645    2.895831
H      2.054147   -1.096651    0.172134
H      1.256578   -1.923526    1.537217
H      0.111149    0.637903    0.291100
H     -0.569136   -0.374437    1.608648
H      0.055133   -1.288077   -1.244111
H     -0.758795   -2.296229    0.021806
H     -2.352394   -1.365578   -1.497622
H     -1.815444    0.316381   -1.192354
H     -2.975542   -1.534230    0.996107
H     -2.408895    0.131985    1.196971
H     -5.318322   -1.689437   -0.601702
H     -4.002316    1.072906   -0.291040
H     -3.970143   -1.998217   -3.820686
H     -6.625819    1.232446    2.279284
