61

C      6.831286   -0.752892   -1.345830
C     -6.303971    2.144175    0.649980
C     -6.242036   -0.040967    1.626891
C      9.351245    1.502541    0.222558
C      8.714363    2.024369    1.339070
C     -5.218218   -3.402610   -0.242740
C     -3.882504   -3.670650   -0.123291
C     -3.369865    1.625981   -0.583266
C      8.686238    0.636278   -0.609014
C      7.418938    1.631734    1.548440
C     -5.601124   -2.094439   -0.369076
C     -2.965187   -2.644580   -0.131881
C     -4.508693    1.151373   -1.426403
C      1.115248   -0.732115    1.455291
C      0.750700   -0.047058   -0.777440
C      2.452526   -0.479750    1.313417
C      2.110653    0.202758   -0.896216
C     -2.099455    0.810905   -0.932233
C      7.361125    0.230803   -0.396379
C      0.240668   -0.513181    0.396162
C      3.006926   -0.010957    0.162523
C      6.748630    0.748299    0.693681
C     -4.707770   -1.024298   -0.383245
C     -5.385491    0.278510   -0.550221
C     -3.372539   -1.322741   -0.260518
C      5.327924    0.455254    0.956424
C     -1.172507   -0.855300    0.584311
N      4.360130    0.290968   -0.051888
N     -5.582216    0.879571    0.732111
N     -2.229179   -0.465414   -0.251267
O      4.989498    0.358229    2.159831
O     -1.459862   -1.580296    1.614452
H      6.002294   -1.375190   -0.986263
H      7.623321   -1.501074   -1.649777
H      6.549012   -0.261403   -2.283621
H     -6.324089    2.591126   -0.345003
H     -5.838790    2.850181    1.378523
H     -7.331971    1.916873    1.030230
H     -6.398442    0.459740    2.627069
H     -5.589841   -0.918337    1.766485
H     -7.257670   -0.320803    1.266784
H     10.373314    1.792865    0.026991
H      9.235824    2.699057    1.986657
H     -5.939757   -4.212091   -0.234598
H     -3.562892   -4.704965   -0.020662
H     -3.113520    2.685109   -0.769616
H     -3.524543    1.414339    0.503711
H      9.208449    0.237968   -1.483264
H      6.933920    2.050359    2.427268
H     -6.654235   -1.859836   -0.465839
H     -1.900478   -2.873767   -0.056629
H     -5.124916    1.960301   -1.833960
H     -4.145120    0.561652   -2.304473
H      0.729747   -1.103040    2.392365
H      0.148128    0.109944   -1.663272
H      3.064429   -0.695090    2.205692
H      2.461016    0.572307   -1.842525
H     -1.249766    1.406372   -0.577810
H     -2.051227    0.674304   -2.011206
H     -6.359169    0.070644   -1.059974
H      4.671489    0.437950   -1.076386
