42

C      2.518987    0.971297   -1.127055
C      2.875697    0.759821    1.269522
C     -2.216869   -1.585094    0.874320
C     -2.342178    0.082907   -1.765862
C      1.085154   -1.751206   -0.957531
C     -1.382686    0.762843    1.745587
C      2.002763   -1.161381    0.053415
C     -0.312945   -1.933178   -0.554052
C     -2.218241    1.072003    0.539665
C     -0.254770   -0.132484    1.207493
C      0.584643    0.814264    0.389215
C     -0.246179    1.120318   -0.818952
C      1.959724    0.338589    0.111877
C     -1.038220   -0.905530    0.163869
C     -1.518992    0.293755   -0.587877
O     -0.624892    2.484935   -0.833061
H      3.634144    1.063244   -1.025979
H      2.337895    0.421741   -2.049905
H      2.155937    2.019686   -1.230145
H      3.583096    1.541960    0.969911
H      2.265380    1.169094    2.106157
H      3.450219   -0.088129    1.667483
H     -2.049386   -1.595695    1.988470
H     -2.269488   -2.686217    0.618381
H     -3.181320   -1.177805    0.580225
H     -3.427558    0.028504   -1.492258
H     -2.012662   -0.748902   -2.377951
H     -2.277448    0.999185   -2.424686
H      1.504726   -2.784171   -1.177202
H      1.174573   -1.250991   -1.967564
H     -1.902530    0.341874    2.590125
H     -0.900022    1.717588    2.108363
H      3.056751   -1.440647   -0.241561
H      1.818338   -1.621442    1.019974
H     -0.898925   -2.198214   -1.483741
H     -0.372448   -2.893612    0.047013
H     -3.273387    0.850925    0.623520
H     -2.151344    2.172894    0.291762
H      0.245777   -0.711941    1.948131
H      0.682227    1.762697    0.997153
H      0.216397    0.931499   -1.776837
H     -0.279939    2.945013   -0.019413
