33

C     -2.105223   -0.173508    0.887551
C     -2.978242    0.590649   -1.205747
C     -3.375821   -0.259007    1.417783
C     -4.250308    0.508377   -0.684818
C      4.374550    0.307250    0.406612
C      2.461149    1.771263    0.669403
C     -1.904461    0.248558   -0.416406
C     -4.428166    0.091979    0.597234
C      3.814300    1.498453    0.774050
C      3.534138   -0.683213   -0.100232
C      1.617429    0.804582    0.171338
C      2.197869   -0.410713   -0.201867
C      1.250000   -1.393676   -0.713343
C      0.012110   -0.992746   -1.431334
C     -0.515654    0.334678   -0.977386
O     -5.728653    0.017122    1.102133
O      4.674836    2.486910    1.283248
O      4.086626   -1.881993   -0.473900
O      1.509604   -2.608162   -0.528627
O     -0.901517   -2.026614   -1.265629
O      0.268936    0.953293    0.019812
H     -1.229261   -0.441501    1.498430
H     -2.804295    0.920156   -2.227525
H     -3.521584   -0.593343    2.447754
H     -5.078704    0.790274   -1.347364
H      5.448001    0.147350    0.511141
H      2.051679    2.738368    0.974525
H      0.269928   -0.952939   -2.510985
H     -0.565307    1.043611   -1.826728
H     -5.911470   -0.287294    2.050779
H      4.849186    2.517236    2.295900
H      3.673783   -2.684589   -0.857063
H     -0.795459   -2.380810   -0.338739
