42

C      3.004227   -0.966866    0.560680
C      2.334499   -0.280597   -1.630242
C     -2.091212    1.308509    1.302654
C     -2.570891    0.102277   -1.460679
C      0.977154    2.162289    0.087642
C     -1.160714   -1.285485    1.689007
C      2.011642    1.186147    0.372701
C     -0.341512    1.670485   -0.404278
C     -2.227199   -1.302074    0.600335
C     -0.138114   -0.241001    1.226173
C      0.637543   -0.908161    0.114863
C     -0.365108   -1.019404   -1.000253
C      1.881635   -0.190799   -0.173318
C     -1.032504    0.688790    0.442592
C     -1.631137   -0.401896   -0.458878
O     -0.701413   -2.358372   -1.295199
H      3.979228   -0.488455    0.344582
H      2.775586   -0.815455    1.641636
H      2.966589   -2.026919    0.273314
H      3.422979    0.025190   -1.605802
H      1.835560    0.425783   -2.281226
H      2.332973   -1.324074   -1.965971
H     -2.984908    1.611167    0.699814
H     -2.415090    0.692298    2.145292
H     -1.653548    2.256839    1.719912
H     -2.227916    1.079422   -1.845428
H     -2.633508   -0.611550   -2.304843
H     -3.559409    0.256918   -1.014627
H      0.758674    2.797726    0.998347
H      1.331361    2.924982   -0.670369
H     -1.555139   -1.079452    2.678087
H     -0.652116   -2.281746    1.644730
H      2.175798    1.117871    1.490498
H      3.007951    1.582840    0.006122
H     -0.211586    1.379441   -1.473397
H     -1.011139    2.584135   -0.462243
H     -2.430531   -2.311743    0.241230
H     -3.169457   -0.853100    0.943993
H      0.433796    0.197171    2.011513
H      0.813559   -1.965156    0.466848
H     -0.032172   -0.592754   -1.951784
H      0.115567   -2.745219   -1.704031
