35

C      4.766558   -0.351488   -0.324739
C      4.432561   -1.053228    0.814477
C      3.895255    0.516873   -0.925848
C      3.161580   -0.848177    1.343030
C      2.655277    0.686487   -0.369878
C     -2.484327    1.136580    0.317951
C     -1.318811    0.946296    1.235272
C      0.926513    0.181190    1.404636
C     -0.206064    0.009547   -0.693176
C     -3.336584    0.272820   -1.805955
C      2.251777    0.020841    0.765266
C     -2.703593   -0.101145   -0.486879
C     -1.438203   -0.865997   -0.632707
N     -0.068671    0.765664    0.525469
O     -4.561635    0.902433   -1.489027
O     -1.292476   -1.683472    0.505384
H      5.737974   -0.476601   -0.770568
H      5.124167   -1.732947    1.278986
H      4.120776    1.082357   -1.816416
H      2.870047   -1.372439    2.220561
H      1.932618    1.374718   -0.825207
H     -3.375458    1.345903    0.920306
H     -2.288114    1.995689   -0.353081
H     -1.512706    0.130247    1.931492
H     -1.223591    1.899208    1.820030
H      1.053535    0.775804    2.319289
H      0.606253   -0.854362    1.716421
H      0.680105   -0.670005   -0.772059
H     -0.263757    0.726728   -1.538769
H     -3.606921   -0.617514   -2.410883
H     -2.709993    0.939078   -2.418538
H     -3.458538   -0.732789    0.051097
H     -1.462943   -1.589571   -1.486105
H     -4.841053    0.700990   -0.559439
H     -2.061559   -2.306347    0.509608
