42

C      4.920752   -1.462262   -0.785702
C     -3.750580    1.377811   -0.475111
C     -4.425462   -1.008903   -0.229485
C     -4.020564    0.391147    1.759578
C      4.551185   -1.140675    0.621299
C      3.648691    2.453675    1.366848
C      4.396922    1.304579    1.276236
C      2.324910    2.487679    0.938010
C      0.506050    1.060646   -0.088808
C     -1.821074   -0.570216   -0.996645
C      3.862944    0.157911    0.761248
C      1.781000    1.332790    0.416239
C     -0.450847   -1.145430   -1.063239
C      0.557565   -0.263577   -0.464104
C      2.532698    0.199945    0.331712
C     -3.595817    0.135212    0.325561
N     -2.223126   -0.284076    0.349859
O     -0.369872   -2.363699   -0.346816
O      1.781672   -0.716037   -0.189621
H      5.976766   -1.264901   -1.037468
H      4.205832   -0.935359   -1.465066
H      4.740754   -2.541712   -0.968980
H     -3.811450    1.084626   -1.557891
H     -4.726603    1.885949   -0.233543
H     -2.949602    2.105713   -0.328654
H     -3.886974   -1.988888   -0.105303
H     -4.592449   -0.886830   -1.306034
H     -5.371976   -1.048325    0.327961
H     -5.092049    0.655607    1.725412
H     -3.794869   -0.521452    2.343601
H     -3.466900    1.279495    2.122926
H      5.394195   -1.157312    1.336184
H      3.807411   -1.913260    0.967873
H      4.082394    3.351677    1.774266
H      5.417365    1.287170    1.606707
H      1.716839    3.364136    0.994192
H     -0.344818    1.716343   -0.176958
H     -1.899731    0.370994   -1.573259
H     -2.511144   -1.312182   -1.492855
H     -0.114789   -1.381011   -2.086630
H     -2.039739   -1.051252    1.018680
H     -0.945507   -3.045746   -0.729554
