37

C      4.251770    2.168630   -0.237628
C     -0.532163   -2.415716    1.162443
C      0.346603    1.324101   -2.136946
C     -0.807988    0.684805   -1.675952
C      0.709100   -1.655032    0.834088
C     -1.683791   -1.469554    1.192337
C      1.577715    0.996125   -1.639206
C     -4.002607    0.041479   -1.215012
C     -4.728780    1.264513    0.402547
C     -0.726034   -0.285752   -0.713219
C      0.507446   -0.617807   -0.211130
C     -1.922080   -0.953490   -0.230300
C      1.651899    0.018503   -0.670639
C     -3.120116   -0.097499   -0.163429
N     -4.992012    0.889455   -0.843903
N     -3.598249    0.670059    0.817138
N      2.928797   -0.324964   -0.152056
O      4.487525    0.256958   -2.144860
O      5.577353   -0.179929   -0.017589
S      4.374039    0.444644   -0.651612
H      3.221163    2.417741    0.073237
H      4.883131    2.311592    0.678809
H      4.608411    2.796638   -1.079087
H     -0.672845   -3.232627    0.421213
H     -0.409593   -2.851289    2.190127
H      0.268215    2.096345   -2.904852
H     -1.739554    1.004669   -2.122833
H      1.441429   -2.389071    0.402567
H      1.208499   -1.198218    1.707164
H     -2.631279   -1.954769    1.500270
H     -1.444821   -0.595432    1.799360
H      2.464556    1.504238   -2.010566
H     -3.926517   -0.444946   -2.186857
H     -5.333792    1.941929    0.985318
H     -2.125381   -1.827729   -0.899619
H     -3.116248    0.753577    1.748504
H      3.006200   -1.092178    0.579488
