53

C      4.914562   -0.600609   -0.413482
C      3.689336    1.297457    0.492503
C     -2.785963    3.467315   -0.587971
C      1.223981   -0.244866    1.779406
C     -2.487223   -2.746831   -0.526058
C     -3.947363    1.376128    0.037761
C      1.398830    0.824505   -1.588893
C      2.424779   -0.225270   -1.724838
C     -3.930711   -0.061113    0.433511
C     -0.431344    1.575348   -0.004179
C      0.308945   -1.706867    0.057213
C      3.676802   -0.193157    0.384269
C     -2.859534    1.986362   -0.421543
C      0.685349    0.700501   -0.472818
C      2.505192   -0.768606   -0.324379
C     -1.638596    1.219710   -0.800615
C     -0.743543   -1.967441    1.040686
C     -2.470600   -0.442502    0.451507
C      1.161153   -0.496351    0.313751
C     -2.208640   -1.886689    0.687206
O     -0.470693   -2.261992    2.190805
O     -2.999917   -2.334589    1.714247
O     -1.951700   -0.111364   -0.793352
H      5.787059   -0.717512    0.263676
H      5.144913    0.240728   -1.095806
H      4.706992   -1.526578   -0.986420
H      2.766549    1.807901    0.227464
H      4.482328    1.760932   -0.167174
H      3.989349    1.610133    1.519434
H     -3.763712    3.910646   -0.864620
H     -2.348188    3.888311    0.318086
H     -2.093523    3.739859   -1.431190
H      1.587768   -1.168030    2.260253
H      1.909509    0.569568    2.086104
H      0.217304   -0.036798    2.147059
H     -1.896215   -2.479268   -1.402063
H     -2.350401   -3.792879   -0.232304
H     -3.559718   -2.608477   -0.771418
H     -4.849727    1.958507    0.115671
H      1.275092    1.608315   -2.358577
H      3.387871    0.154218   -2.115421
H      2.003651   -1.000740   -2.426927
H     -4.529127   -0.696018   -0.250578
H     -4.305239   -0.171885    1.476872
H     -0.544505    1.524730    1.081739
H     -0.210433    2.662372   -0.226496
H     -0.050919   -1.711448   -0.993596
H      1.003415   -2.600911    0.107800
H      3.837083   -0.632282    1.400306
H      2.687340   -1.870426   -0.423982
H     -1.425205    1.504703   -1.867326
H     -2.012271    0.129079    1.284645
H     -3.910143   -2.455825    1.400055
