54

C      1.911289   -0.473040   -1.538493
C     -0.828785    0.699881   -1.770813
C      5.856596    1.006699    0.019435
C      0.594232    2.408231    0.088669
C     -4.705596   -1.024190    0.938356
C      1.749335    1.521571   -0.018761
C     -5.977733   -1.186678    1.447429
C      2.297433   -2.188234    0.666655
C     -2.277754   -0.108849    0.000468
C     -5.846571    0.836783    0.725671
C     -4.616110    0.265607    0.476206
C     -0.724037    1.804327    0.392372
C      2.507431   -0.714553    0.781223
C      0.920234   -2.668258    0.971912
C     -3.413614    0.856164   -0.150219
C      0.004561   -1.843858    0.090327
C      0.162873   -0.394879    0.269252
C      3.924779   -0.461497    0.401029
C     -1.872043    2.665606    0.199308
C      1.551168    0.063078   -0.145669
C     -0.922575    0.456282   -0.306148
O      0.817323   -4.004097    0.687179
O     -0.736117   -2.428125   -0.644055
O      4.717764   -1.404684    0.056398
O     -1.720641    3.874484   -0.092191
O      4.505463    0.798334    0.385861
O     -6.596640   -0.061454    1.293449
O     -3.142323    2.154715    0.336975
H      1.375721   -1.436815   -1.713572
H      1.774319    0.267407   -2.323367
H      3.005078   -0.757647   -1.579722
H     -0.215012    1.575723   -2.066575
H     -0.577549   -0.205411   -2.362375
H     -1.869693    0.971928   -2.124440
H      6.333434    0.003128   -0.140267
H      5.923293    1.523463   -0.971636
H      6.441601    1.532075    0.775227
H      0.762748    3.201026    0.883397
H      0.457200    3.042523   -0.839284
H     -3.960792   -1.823161    0.938113
H      2.416655    1.692338    0.878968
H      2.387252    1.851059   -0.886620
H     -6.352446   -2.095369    1.884481
H      2.544534   -2.487236   -0.370482
H      3.004812   -2.691328    1.328321
H     -2.475605   -0.911919   -0.771395
H     -2.313435   -0.628775    0.977482
H     -6.092083    1.842305    0.478091
H     -0.704122    1.532281    1.491443
H      2.401719   -0.337593    1.825542
H      0.644056   -2.410607    2.014103
H     -3.699621    0.996784   -1.235594
H      0.134390   -0.219044    1.388916
H      0.513607   -4.476499    1.503964
