54

C      4.838322   -1.248637   -1.167136
C      6.505526    0.613778   -0.728040
C     -6.330636   -1.393441   -0.744925
C     -4.429856   -0.710109   -2.182583
C      1.896376   -1.746783    1.586072
C     -2.030427    2.181301   -1.056701
C      0.701694   -1.205376    1.177732
C     -0.819996    1.659285   -0.659029
C      4.392162   -1.527865    1.620716
C     -4.524616    1.960986   -1.091643
C      4.994573    0.896710    1.515570
C     -5.286424    0.687430    0.842413
C      3.053331   -1.047491    1.240837
C     -3.168360    1.488490   -0.714114
C      5.428857   -0.519181    1.197740
C     -5.557219    0.978030   -0.640984
C      4.218635    0.818948    0.191098
C     -4.311199   -0.387207    0.344216
C      0.605451   -0.033456    0.461842
C     -0.706533    0.487290    0.058068
C      2.952601    0.123596    0.525191
C     -3.057224    0.306223    0.009041
C      5.281173   -0.144781   -0.270502
C     -5.158267   -0.463445   -0.906843
N      1.747060    0.600968    0.154857
N     -1.840551   -0.161011    0.373973
H      5.143788   -0.972746   -2.218744
H      5.399599   -2.209375   -0.975778
H      3.749628   -1.408931   -1.203259
H      6.317884    1.710554   -0.778069
H      7.351216    0.487177   -0.000566
H      6.822875    0.314610   -1.763761
H     -6.603605   -1.462278    0.342003
H     -6.128920   -2.402571   -1.146300
H     -7.233372   -0.924933   -1.226992
H     -3.652166   -1.494241   -2.057941
H     -3.971934    0.167192   -2.639755
H     -5.169128   -1.125666   -2.926955
H      2.002836   -2.650038    2.140024
H     -2.118555    3.107523   -1.623302
H     -0.219929   -1.720394    1.427288
H      0.103766    2.168254   -0.904773
H      4.534390   -2.510355    1.128899
H      4.507172   -1.663343    2.716829
H     -4.691859    2.903047   -0.491338
H     -4.567049    2.197518   -2.154850
H      5.844745    1.594821    1.469467
H      4.352064    0.940291    2.404683
H     -6.174002    0.280444    1.342134
H     -4.751257    1.499455    1.357702
H      6.466381   -0.753900    1.502860
H     -6.589489    1.239735   -0.864980
H      4.134441    1.754842   -0.349193
H     -4.253974   -1.280942    0.956416
