40

C      1.536328    2.398430   -0.373531
C      3.818575   -2.121245   -0.290287
C     -3.903682   -2.478061    0.482451
C      2.541161   -2.505847   -0.602096
C      4.004713   -1.011071    0.483969
C     -3.256833   -2.643784   -0.708321
C     -3.591312   -1.397352    1.276395
C      1.451200   -1.764642   -0.128341
C      2.922874   -0.289618    0.944129
C     -2.298942   -1.726167   -1.099238
C     -2.636586   -0.478931    0.890926
C      0.484322    0.141618    1.172380
C     -0.932474    0.338127   -0.779314
C     -0.763680    3.113516   -0.751373
C      0.114659    2.302095    0.170887
C      1.613175   -0.645247    0.651413
C     -1.981357   -0.636336   -0.301870
N     -0.242922    0.936851    0.285220
O     -0.250425    4.438285   -0.713390
H      1.751709    1.506742   -0.983435
H      1.615229    3.266628   -1.093524
H      2.295607    2.486302    0.407305
H      4.651481   -2.725710   -0.677413
H     -4.659781   -3.218704    0.771698
H      2.399159   -3.381670   -1.212621
H      5.022378   -0.696192    0.738356
H     -3.467633   -3.480093   -1.369870
H     -4.131062   -1.309876    2.209236
H      0.484621   -2.120827   -0.407930
H      3.162971    0.576106    1.555483
H     -1.767888   -1.840156   -2.049646
H     -2.420038    0.360970    1.541291
H     -0.233175   -0.567297    1.689067
H      0.814668    0.800934    2.032700
H     -0.353689   -0.132739   -1.566717
H     -1.556969    1.145786   -1.268827
H     -1.805214    3.133535   -0.418623
H     -0.637564    2.829271   -1.828195
H      0.039375    2.768378    1.177087
H      0.167024    4.627992    0.144571
