33

C     -2.600490    0.625194    1.553771
C     -3.565671    0.952353   -0.659978
C      2.234776    1.898062    0.530313
C      4.004273    0.256015    0.360385
C      0.886251    2.240140    0.392272
C      4.392100   -1.031719    0.050151
C      2.662026    0.616247    0.228789
C      0.004955    1.272849   -0.048333
C      3.436197   -1.925876   -0.382130
C      0.444525    0.020915   -0.338884
C     -0.487253   -1.006971   -0.806365
C      1.787676   -0.358439   -0.212755
C     -1.888383   -0.853915   -0.308674
C     -2.301698    0.524771    0.062619
O      3.841365   -3.103539   -0.656904
O      0.020093   -2.285732   -0.576111
O     -2.803030   -1.353591   -1.243233
O      2.175741   -1.581811   -0.504009
O     -1.347370    1.523400   -0.214004
H     -2.017944   -0.219420    2.025689
H     -3.662636    0.440314    1.779972
H     -2.206231    1.544700    1.999664
H     -4.270799    0.106625   -0.774335
H     -4.021895    1.812349   -0.119804
H     -3.249994    1.339426   -1.652033
H      2.923189    2.645851    0.872187
H      4.664600    1.020433    0.702199
H      0.542140    3.229690    0.622531
H      5.435236   -1.313207    0.151971
H     -0.530466   -0.908806   -1.928907
H     -1.991937   -1.507259    0.584375
H     -0.132977   -2.596647    0.351115
H     -2.376366   -2.022402   -1.841544
