54

C      1.888474    0.993058   -1.733517
C     -1.014531    1.914094   -1.341363
C      6.164418   -0.088224    0.730372
C     -0.341356   -0.897553   -2.415165
C     -5.113746    0.950615    1.931113
C      0.946429   -1.220257   -1.741044
C     -5.851927   -0.019521    2.556673
C      2.126631   -0.827141    1.491029
C     -2.023365    0.706948    0.530652
C     -4.695377   -1.014895    1.040872
C     -4.365341    0.321876    0.953509
C     -1.410365   -0.554502   -1.442212
C      2.519151   -0.679263    0.033971
C      1.717675    0.480342    2.119008
C     -3.394892    0.961660   -0.004242
C      0.775551    1.133710    1.132752
C      0.291447    0.248195    0.062218
C      3.819313    0.015866    0.031644
C     -2.725331   -0.305279   -2.003047
C      1.451788   -0.095149   -0.823575
C     -0.973617    0.650231   -0.593282
O      2.798525    1.265050    2.403962
O      0.478890    2.304788    1.267706
O      4.082866    1.126564   -0.470028
O     -3.069045   -0.730652   -3.127319
O      4.872892   -0.642010    0.661505
O     -5.574956   -1.166597    2.000139
O     -3.641586    0.430240   -1.273946
H      2.776999    0.613684   -2.305326
H      2.101109    1.961362   -1.290806
H      1.123893    1.123964   -2.560517
H     -1.197111    1.683878   -2.433322
H     -0.195005    2.615251   -1.183759
H     -1.947309    2.494174   -1.066708
H      6.371244    0.367380   -0.267926
H      6.878582   -0.868937    1.014255
H      6.243997    0.730945    1.472740
H     -0.664641   -1.860607   -2.913537
H     -0.275576   -0.175573   -3.245649
H     -5.069929    2.024505    2.110418
H      1.735231   -1.301628   -2.545256
H      0.882581   -2.177698   -1.218743
H     -6.546956    0.180273    3.382750
H      1.436617   -1.664869    1.686150
H      3.083748   -1.124195    2.018405
H     -1.736718    1.577777    1.155405
H     -1.953495   -0.189461    1.179787
H     -4.317610   -1.819629    0.443618
H     -1.503076   -1.391012   -0.706273
H      2.768073   -1.741539   -0.279573
H      1.118831    0.249230    3.030805
H     -3.655919    2.037733   -0.026821
H      0.022205   -0.735728    0.567441
H      2.781620    2.167674    2.004058
