40

C      1.228600   -2.980571   -1.262993
C      4.061837    2.393067    0.627596
C     -2.891793    1.529130   -0.939843
C     -4.148769    0.367755    0.790586
C     -0.798462   -1.531753   -0.991981
C     -1.802438   -1.204427    0.072214
C      1.709934    1.515325    0.476685
C      2.656932   -1.009492   -0.218733
C      0.508397   -1.984828   -0.401992
C      3.060804    1.297743    0.373756
C      1.300526   -0.781975   -0.113002
C      3.504318    0.050237    0.030976
C      0.846700    0.469304    0.231112
C     -1.649909    0.116457    0.709881
C     -2.843189    1.033670    0.502312
O      4.893840   -0.152836   -0.069453
O     -2.753843    2.168897    1.306107
O     -0.506317    0.839660    0.374207
H      1.822631   -3.635891   -0.594165
H      1.811734   -2.525338   -2.069810
H      0.434345   -3.653424   -1.699696
H      3.563537    3.285284    1.001853
H      4.734902    1.982799    1.425835
H      4.694607    2.544640   -0.264073
H     -3.553079    2.417461   -0.995922
H     -1.893025    1.853284   -1.291418
H     -3.339287    0.757351   -1.610456
H     -4.162233   -0.248464    1.696457
H     -4.561334   -0.173086   -0.105681
H     -4.897821    1.194400    0.970851
H     -0.663456   -0.700728   -1.720646
H     -1.199758   -2.384024   -1.583874
H     -1.756040   -2.054386    0.817133
H     -2.815991   -1.342283   -0.409547
H      1.312832    2.462288    0.738946
H      3.042169   -2.000496   -0.492147
H      0.276849   -2.475013    0.567000
H     -1.604826   -0.046397    1.828613
H      5.548657    0.597222    0.105396
H     -3.172581    2.009437    2.187917
