70

C      2.915900   -3.050560    1.557637
C      3.467466   -3.140781   -0.817034
C      6.675425   -0.243789    0.801396
C     -1.154225   -2.263813   -3.046320
C     -3.097732   -1.824864   -1.788292
C     -1.393076   -1.734185    0.527269
C     -2.890519   -0.183862    1.441036
C     -1.608831   -3.530576   -3.379137
C     -3.593137   -3.107564   -2.106262
C     -1.637574   -2.586962    1.616175
C     -3.132575   -1.027778    2.522959
C      3.927727    2.008800   -0.302962
C      2.567979    1.959737   -0.607297
C     -1.717063    5.763480    1.373452
C     -1.357686    4.392618    1.850269
C      3.894633   -0.321877    0.173817
C     -2.931412    3.427412    0.161003
C      2.351651   -2.811008    0.200556
C     -1.892884   -1.414638   -2.254059
C     -2.019319   -0.524700    0.434337
C     -2.831588   -3.938753   -2.901939
C     -2.511989   -2.225099    2.614565
C      4.595400    0.873777    0.087482
C      1.909624    0.778625   -0.512027
C      2.553500   -0.409217   -0.116626
C     -3.551721    4.793244    0.272738
C     -1.322089   -0.097473   -1.931528
C     -1.780159    0.487368   -0.651045
C      0.488302    0.629879   -0.856033
C     -0.620431    2.466107    0.516947
Cl    -3.431164   -5.549741   -3.302809
Cl    -2.827818   -3.256039    3.989236
N     -3.034966    5.808306    0.793323
N      0.088968   -0.137016   -1.811304
N     -1.667789    3.358699    0.823030
N     -0.612375    1.289622   -0.239378
O     -4.849931    4.881841   -0.279760
O      0.513280    2.819332    1.030416
O      5.946553    0.881293    0.401355
O      1.811854   -1.554028   -0.055677
H      2.269287   -3.837204    2.065810
H      3.925708   -3.554304    1.522323
H      3.027938   -2.167816    2.192808
H      4.379652   -3.500817   -0.329895
H      3.601292   -2.295605   -1.512379
H      3.096938   -3.980343   -1.428722
H      6.899913   -0.879095   -0.092457
H      6.089980   -0.794511    1.553992
H      7.650019    0.044549    1.261781
H     -0.190959   -1.968783   -3.430914
H     -3.745507   -1.226106   -1.167089
H     -0.721706   -2.050626   -0.223869
H     -3.446794    0.736767    1.475835
H     -1.045258   -4.207167   -3.996142
H     -4.549438   -3.404710   -1.725283
H     -1.148350   -3.543722    1.704262
H     -3.829829   -0.737603    3.325387
H      4.418885    2.947397   -0.388915
H      2.075191    2.875742   -0.959211
H     -1.708294    6.449177    2.269470
H     -0.965035    6.159367    0.665290
H     -0.287065    4.372202    2.114930
H     -1.958408    4.151208    2.774495
H      4.417230   -1.242493    0.486318
H     -3.702564    2.744996    0.507063
H     -2.802456    3.306069   -0.964729
H      1.548247   -3.578934   -0.032738
H     -1.574784    0.653951   -2.743089
H     -2.689398    1.034301   -0.794675
H     -5.274641    5.808297   -0.359165
