56

C      3.835787   -2.243447   -2.620489
C      3.719835    2.738908    2.447903
C     -2.364546    2.638219   -1.915405
C     -2.988133   -1.323151    3.187794
C      2.969799   -2.028635   -1.403176
C      2.630131    1.711590    2.166444
C     -3.488998    1.651974   -1.823725
C     -3.171863   -2.041685    1.885553
C      3.937177    0.168787   -0.999476
C      3.689254    1.302940   -0.064048
C     -4.279518   -0.601614   -1.399206
C     -3.975550   -1.744696   -0.469184
C      0.271110    0.442405    0.472180
C     -0.834366   -0.588754    0.438399
C      2.637180   -0.576497   -1.184808
C      3.223367    0.686464    1.240832
C     -3.025287    0.263427   -1.447226
C     -3.756909   -1.083027    0.892643
P      1.902788   -0.448239    0.545814
P     -2.511799    0.205958    0.363847
H      3.194636   -2.620087   -3.443553
H      4.370052   -1.323667   -2.912789
H      4.582339   -3.037034   -2.410477
H      4.044229    3.258751    1.531112
H      4.622734    2.177060    2.822845
H      3.438758    3.418851    3.273672
H     -2.065346    2.738538   -2.967026
H     -1.538005    2.428010   -1.224413
H     -2.774235    3.639891   -1.603247
H     -3.285004   -0.244374    3.132140
H     -3.602266   -1.752978    4.018252
H     -1.924788   -1.420600    3.532515
H      2.075841   -2.671665   -1.462357
H      3.551609   -2.365967   -0.520723
H      2.383913    1.244894    3.120415
H      1.798180    2.255820    1.700630
H     -4.031113    1.579737   -2.781018
H     -4.256533    1.940539   -1.060850
H     -2.249949   -2.531272    1.510798
H     -3.909233   -2.846772    2.045913
H      4.700774   -0.508486   -0.551054
H      4.354686    0.562812   -1.933002
H      4.602561    1.882594    0.041117
H      2.837486    1.900057   -0.484493
H     -5.100433   -0.006447   -0.948605
H     -4.515004   -0.982294   -2.391406
H     -3.022868   -2.214131   -0.768277
H     -4.825551   -2.423899   -0.477534
H      0.179938    1.048275    1.411579
H      0.261556    1.048490   -0.438254
H     -0.677842   -1.267487   -0.418597
H     -0.711542   -1.198759    1.374225
H      1.985354   -0.140858   -1.935275
H      4.004284    0.081921    1.703575
H     -2.251709   -0.136891   -2.097957
H     -4.666971   -0.643498    1.297451
