40

C      1.313761    2.807625    1.699339
C      3.926695   -2.258255   -1.095609
C     -4.198289   -0.241610   -0.083367
C     -2.898740   -2.182882   -0.775889
C     -0.577100    2.105510    0.259147
C     -1.847439    1.322428    0.301935
C      1.602303   -1.325156   -0.847758
C      2.569813    0.612701    0.908543
C      0.443526    1.656348    1.282435
C      2.941486   -1.295096   -0.536779
C      1.237603    0.578970    0.596011
C      3.411311   -0.327690    0.337212
C      0.761713   -0.389061   -0.279593
C     -1.732740   -0.127673    0.015408
C     -2.900840   -0.668651   -0.783367
O      4.757927   -0.280190    0.663823
O     -2.889657   -0.149400   -2.062529
O     -0.563517   -0.522329   -0.669758
H      1.730391    2.588788    2.701929
H      2.054083    3.095408    0.955262
H      0.651567    3.709549    1.843158
H      4.741663   -1.725712   -1.644003
H      4.327271   -2.937020   -0.320840
H      3.388697   -2.850945   -1.891778
H     -4.941422   -0.022576   -0.866764
H     -4.601596   -1.065921    0.543809
H     -4.012471    0.620212    0.565978
H     -1.834052   -2.535264   -0.887199
H     -3.489601   -2.608802   -1.591670
H     -3.217717   -2.503950    0.237024
H     -0.811404    3.179313    0.340220
H     -0.153995    1.977440   -0.780555
H     -2.300434    1.499746    1.321721
H     -2.556047    1.819520   -0.407628
H      1.234498   -2.074187   -1.525318
H      2.926705    1.367547    1.588965
H     -0.096648    1.194438    2.115502
H     -1.742657   -0.660821    1.011267
H      5.370031   -0.963906    0.248522
H     -2.024682   -0.418445   -2.486807
