73

C      7.822579    3.009202   -0.729284
C     -0.824430    4.408269   -1.422771
C     -5.072532   -5.283871   -0.351735
C      1.794482   -3.984142   -0.052261
C      6.467792    3.252406   -1.257056
C      5.392591    2.583314   -0.814260
C      4.085999    2.836946   -1.342438
C      0.081413    2.922585    2.051777
C     -3.399402    0.440436   -1.059122
C      0.080581    3.543153    0.728140
C     -3.157359    1.616870   -1.488154
C     -3.487558   -0.921555   -1.731710
C      3.026178    2.195311   -0.923059
C     -0.274027    1.876039    2.685334
C     -2.278608    3.371084    0.330438
C     -4.666240   -2.963892   -0.786915
C     -3.033359   -4.449148    0.620412
C     -0.625312   -4.039880    0.183974
C      0.363619   -1.850170   -0.040540
C     -0.947036    3.757376   -0.070868
C     -4.254279   -4.263553   -0.162294
C      0.457432   -3.305717    0.036732
C     -3.062594    2.965096   -0.858168
C     -3.500332   -2.045189   -0.682487
C     -1.943733   -3.431434    0.275313
C      0.501853   -1.153706    1.306875
C      3.003285    1.179309    0.089114
C     -0.947354    0.586513    2.405904
C      1.804570   -0.370058    1.383910
N      1.865614    0.652840    0.373830
O     -3.725262    3.969363   -1.365487
O      4.087416    0.719877    0.780532
O     -2.000219    0.323494    3.141842
O      2.888558   -1.238072    1.177706
O     -2.374157   -2.831342   -0.906377
O     -0.613812   -0.360079    1.484347
H      8.208383    3.938389   -0.228606
H      8.534267    2.756377   -1.521128
H      7.816215    2.227445    0.070006
H     -0.638567    3.673798   -2.214570
H      0.092248    5.062427   -1.373551
H     -1.666179    5.088128   -1.628533
H     -4.828630   -6.239340    0.072297
H     -5.995005   -5.228470   -0.916285
H      2.385579   -3.394251   -0.783745
H      1.669715   -5.036992   -0.378655
H      2.254715   -3.900934    0.947145
H      6.311839    3.978680   -2.015632
H      5.582807    1.865385   -0.057317
H      3.920946    3.594307   -2.134865
H      0.644030    3.751313    2.674676
H     -3.643062    0.127792    0.022167
H      1.026814    3.918979    0.263568
H     -2.953711    1.924625   -2.589784
H     -4.504210   -1.065857   -2.212631
H     -2.690624   -1.195685   -2.396634
H      2.035897    2.455320   -1.391872
H     -0.082946    1.757985    3.835426
H     -2.770825    4.263983    0.773136
H     -2.427350    2.588565    1.053211
H     -4.883859   -3.105112   -1.885636
H     -5.573542   -2.632240   -0.273670
H     -2.593175   -5.443732    0.315507
H     -3.190101   -4.524245    1.716038
H     -0.541647   -5.131978    0.239677
H      1.219896   -1.461450   -0.673426
H     -0.528743   -1.465626   -0.605670
H     -3.458500   -1.615044    0.339629
H     -1.981675   -2.705218    1.140800
H      0.618933   -1.974336    2.044624
H      1.941364    0.087842    2.378902
H      4.082038    0.651615    1.812555
H      3.070305   -1.310121    0.189375
