29

C      4.254584   -0.077133    0.997631
C      3.495822   -1.154482    1.399810
C      3.685715    0.834258    0.138547
C      2.185780   -1.307813    0.941975
C      2.373884    0.666999   -0.310708
C     -2.928329   -0.484775    1.228760
C     -4.022296    0.076554    0.752781
C      1.616160   -0.403640    0.087505
C     -1.636424   -0.054775    0.716409
C     -3.952871    1.117851   -0.283656
C     -0.359643    0.617493   -1.058074
C      0.248728   -0.605805   -0.366297
C     -1.807192    0.336645   -0.744977
O     -5.001041    1.628291   -0.702326
O     -0.169016    0.520678   -2.431987
O     -0.641304   -1.002159    0.625557
O     -2.653601    1.467790   -0.734665
H      5.285866    0.043198    1.358342
H      3.957125   -1.861786    2.074960
H      4.294448    1.680160   -0.171673
H      1.645513   -2.168181    1.291298
H      1.977238    1.414134   -0.987824
H     -2.998790   -1.254120    1.990014
H     -5.004771   -0.241357    1.139503
H     -1.308804    0.854094    1.277423
H     -0.008189    1.565668   -0.650922
H      0.260170   -1.424992   -1.136165
H     -2.178996   -0.464740   -1.373977
H     -0.609767   -0.318053   -2.747360
