66

C      7.111544    1.857238   -0.489120
C      5.587292    1.831487   -2.380129
C     -2.628254   -3.126412   -0.161153
C     -0.578816    1.312319    0.644931
C      0.168307   -5.163517    0.371389
C     -5.040919    1.695531    0.789596
C     -5.210437    3.524799   -0.794391
C     -6.073659    1.283747   -1.387730
C      4.195024    1.646231    0.182350
C      4.657021   -0.641421   -0.012915
C      3.134604    1.357973    1.018002
C      3.596585   -0.928553    0.822453
C     -3.642505    1.669806   -1.271634
C      2.006715   -1.379821    3.234903
C      6.130506    0.967503   -1.260354
C     -1.557901   -2.272294    0.428703
C     -0.530713   -0.150494    0.840217
C     -0.532757   -4.302637    1.338288
C      4.982897    0.653181   -0.354244
C      2.800792    0.063625    1.364742
C      1.650932   -0.254683    2.259411
C     -3.422447    0.173506   -1.081993
C     -0.555546   -2.860868    1.149970
C      0.465090   -0.750061    1.557958
C     -1.582862   -0.877702    0.244706
C      0.471787   -2.117845    1.727022
C     -4.984228    2.030225   -0.691066
N     -2.575634   -0.348060   -0.470431
O     -1.106744   -4.825520    2.321017
O     -4.413181   -0.602343   -1.766073
O      1.571257   -2.497381    2.486234
H      6.508887    2.489447    0.197456
H      7.681685    1.152392    0.177052
H      7.742452    2.405905   -1.181881
H      6.434805    1.991478   -3.093059
H      5.378503    2.848083   -1.952851
H      4.726783    1.397493   -2.892419
H     -2.616487   -2.948654   -1.255855
H     -2.520561   -4.176025    0.106774
H     -3.586102   -2.765592    0.298593
H      0.189365    1.814865    1.264724
H     -1.558035    1.694596    1.032509
H     -0.393785    1.576753   -0.402607
H      0.302848   -4.702504   -0.622677
H     -0.352321   -6.135406    0.242455
H      1.192206   -5.379914    0.775435
H     -4.917268    0.599668    0.891026
H     -4.254271    2.258063    1.308784
H     -6.047458    1.977673    1.137743
H     -5.983354    3.795132   -0.039353
H     -5.605053    3.824397   -1.781986
H     -4.261846    4.040376   -0.525708
H     -5.861218    1.092461   -2.462045
H     -6.315709    0.364684   -0.819732
H     -7.026726    1.884223   -1.385159
H      4.442581    2.676982   -0.080179
H      5.269757   -1.452427   -0.426497
H      2.525673    2.170126    1.436001
H      3.352378   -1.969280    1.082821
H     -2.811107    2.262613   -0.915179
H     -3.750885    1.792007   -2.390248
H      1.505325   -1.261577    4.196289
H      3.118846   -1.480401    3.328042
H      6.641451    0.071900   -1.604969
H      1.447776    0.631089    2.890993
H     -4.692885   -1.508185   -1.415359
