66

C      6.775330    2.537029    0.578546
C      4.780233    3.393881    1.748609
C     -2.986873   -3.097994    0.616388
C      0.108275    0.683818   -0.215839
C     -0.820681   -5.851226    0.716931
C     -5.267257    1.681374   -1.422387
C     -5.575786    3.083141    0.617877
C     -3.349838    2.890704   -0.362434
C      3.812106    1.801160   -1.224851
C      4.386205    0.656116    0.757078
C      3.048764    0.724188   -1.624725
C      3.610338   -0.433976    0.346799
C     -4.405573    0.931280    0.749955
C      2.687481   -2.904575   -1.004975
C      5.327237    2.955244    0.414491
C     -1.692823   -2.574720    0.142027
C     -0.198326   -0.762320   -0.261010
C     -1.096546   -4.901618   -0.384725
C      4.492068    1.781931   -0.027188
C      2.931757   -0.418796   -0.845123
C      2.111605   -1.524403   -1.318738
C     -3.483391   -0.026895    0.121685
C     -0.767720   -3.486372   -0.351363
C      0.755711   -1.619801   -0.760023
C     -1.417204   -1.220547    0.190105
C      0.432501   -2.982932   -0.789132
C     -4.662573    2.133028   -0.128143
N     -2.389428   -0.306591    0.703469
O     -1.651114   -5.348538   -1.415660
O     -3.847102   -0.590660   -1.088801
O      1.522705   -3.696830   -1.326127
H      6.917506    1.879280    1.449737
H      7.135890    2.055880   -0.362480
H      7.357745    3.462964    0.761152
H      3.691100    3.598326    1.658625
H      5.286729    4.339342    2.029049
H      4.997240    2.646545    2.512968
H     -3.414321   -2.416116    1.368256
H     -3.695879   -3.270448   -0.238399
H     -2.880758   -4.096225    1.109793
H      1.006954    0.829285    0.414088
H     -0.713288    1.250526    0.317711
H      0.220349    1.119143   -1.222925
H     -0.692965   -5.358978    1.695105
H     -1.626195   -6.617673    0.727848
H      0.109969   -6.416499    0.431753
H     -6.014343    2.426839   -1.785333
H     -5.820960    0.721674   -1.327492
H     -4.473168    1.500429   -2.174053
H     -5.174003    3.183484    1.652309
H     -6.621104    2.778240    0.576491
H     -5.494563    4.087799    0.152870
H     -2.723754    2.386322   -1.122982
H     -3.640140    3.918488   -0.646354
H     -2.827650    2.894317    0.622001
H      3.901588    2.689036   -1.832906
H      4.912338    0.621224    1.701029
H      2.516472    0.750719   -2.572152
H      3.538941   -1.300499    0.971063
H     -4.049507    1.309816    1.722571
H     -5.402918    0.462054    0.939122
H      3.535261   -3.157238   -1.640335
H      2.869978   -2.977305    0.078539
H      5.263535    3.723620   -0.356924
H      1.967654   -1.492535   -2.441111
H     -3.133810   -1.035938   -1.646485
