35

C      4.687880    1.302603    0.171627
C     -4.827254   -0.443510    0.818170
C      3.517353   -2.234849   -0.415334
C      4.338972   -1.143849   -0.228765
C      2.129534   -2.080326   -0.407000
C      1.912645    1.545177    0.177535
C      0.552955    1.700640    0.186356
C     -3.775052    1.776682    0.602383
C      3.803421    0.110933   -0.031997
C     -3.998247    0.447504   -0.071483
C      2.423844    0.279678   -0.021260
C      1.619467   -0.833016   -0.211134
C     -0.292381    0.648828    0.005849
C     -2.628285   -0.100084   -0.143644
C      0.241333   -0.638243   -0.196170
C     -2.150956   -1.440684   -0.355016
C     -0.691877   -1.722776   -0.383091
C     -1.744448    0.867003    0.023666
O     -2.896927   -2.435020   -0.525071
O     -0.322702   -2.892620   -0.568111
O     -2.431014    2.078622    0.211646
H      4.374518    1.836315    1.088049
H      4.675875    1.952698   -0.733405
H      5.725246    0.946155    0.294585
H     -4.873703   -1.465234    0.412548
H     -4.362138   -0.487189    1.814788
H     -5.866313   -0.066234    0.887127
H      3.941606   -3.204536   -0.567274
H      5.406721   -1.221430   -0.228481
H      1.563284   -2.962253   -0.556638
H      2.549968    2.400940    0.323799
H      0.151172    2.699725    0.343319
H     -4.478280    2.532466    0.215282
H     -3.827302    1.686642    1.708876
H     -4.448916    0.559242   -1.075160
