39

C     -4.945791    0.796098   -0.110793
C     -3.724363    0.217779    0.548016
C      3.437004    1.767352   -0.338577
C      1.070871    2.045943   -0.788539
C      4.552528    1.020424   -0.056160
C     -0.252523    1.321301   -0.893036
C     -2.648754    0.022941   -0.532472
C     -1.569860   -1.830766    0.585798
C     -0.250816   -2.515424    0.763883
C      3.238551   -0.940872   -0.070082
C      2.205569    1.169872   -0.490763
C      4.462291   -0.335563    0.079895
C      2.117836   -0.194499   -0.353536
C     -0.258214    0.093191   -0.046251
C      0.797461   -0.850732   -0.520171
N     -1.511993   -0.518040    0.092906
O      5.625919   -1.057301    0.368085
O      0.786468   -2.091875    0.022319
H     -5.825061    0.631879    0.529298
H     -4.768184    1.898539   -0.223527
H     -5.043059    0.314575   -1.108493
H     -3.889974   -0.699854    1.111355
H     -3.378238    0.987296    1.287852
H      3.561706    2.845237   -0.438066
H      1.253072    2.582026   -1.764350
H      1.034946    2.873826   -0.031983
H      5.508628    1.508163    0.058787
H     -1.009753    2.081279   -0.546613
H     -0.402449    1.067128   -1.962693
H     -3.115922   -0.749171   -1.220414
H     -2.512474    0.900191   -1.151669
H     -2.083098   -1.835708    1.569341
H     -2.238660   -2.439332   -0.092305
H     -0.424583   -3.604545    0.548901
H      0.056664   -2.498868    1.847928
H      3.174298   -2.015313    0.039923
H      0.068247    0.433560    0.984451
H      0.665603   -0.964875   -1.634266
H      6.236107   -1.435862   -0.335814
