48

C      3.265168    1.263844   -1.492779
C     -3.892083   -0.652223   -1.113883
C      4.604306    1.371690   -1.717633
C     -5.225044   -0.769922   -0.756355
C      1.276900    0.659293   -0.094798
C     -1.571951    0.258147   -0.685589
C      3.635560    0.382937    0.643790
C     -3.540899    0.711907    0.777222
C      0.860105   -1.028876   -1.925475
C     -0.832759   -0.825706    1.450188
C      7.255245    0.134001    0.372312
C     -7.028627    0.987387    1.888540
C      2.733015    0.772101   -0.319916
C     -3.030196    0.096162   -0.343895
C      0.689606   -0.656690   -0.475175
C     -0.746241   -0.813841   -0.049201
C      5.490347    0.980865   -0.750511
C     -5.741737   -0.155714    0.364860
C      4.995193    0.484241    0.435413
C     -4.881116    0.594333    1.137849
O      2.189526   -1.120404   -2.310029
O     -0.025033   -1.856400    1.955348
O      6.897834    0.974616   -0.698088
O     -7.014401   -0.100002    0.956475
O      6.105997    0.176691    1.207599
O     -5.647759    1.090228    2.182853
H      2.585698    1.587666   -2.285770
H     -3.483671   -1.132488   -1.992366
H      4.972181    1.760939   -2.647698
H     -5.888447   -1.354538   -1.361791
H      0.754497    1.473751   -0.687115
H      1.037854    0.877827    0.970764
H     -1.227735    1.236491   -0.330772
H     -1.525541    0.166441   -1.786860
H      3.268393   -0.017509    1.600897
H     -2.894774    1.309734    1.409251
H      0.292670   -0.315351   -2.560453
H      0.423583   -2.044089   -2.046319
H     -1.899264   -0.985149    1.793723
H     -0.521300    0.101953    1.943654
H      8.128546    0.530449    0.929921
H      7.410582   -0.882382   -0.017467
H     -7.545791    0.712276    2.829496
H     -7.427597    1.908379    1.420546
H      1.252095   -1.463504    0.094493
H     -1.077700   -1.838340   -0.426217
H      2.557705   -2.027091   -2.077523
H     -0.012940   -2.564132    1.257839
