41

C      4.339195    1.035437   -0.046875
C      5.213785   -1.336181    0.453870
C     -4.801741   -1.337859   -0.880555
C     -0.170116    1.852666   -0.934627
C      1.685801    0.142106    0.618539
C      2.869852   -0.759404    0.672753
C     -2.770328   -1.408576    0.544548
C     -1.800531   -0.676336    1.399581
C      0.669637   -0.397833   -0.364159
C     -2.537329    1.465297    0.513462
C      4.096151   -0.358348    0.368415
C     -3.753551   -0.713553    0.005233
C     -1.334618    0.598734    0.790964
C     -3.780473    0.707981    0.311028
C     -0.552428    0.459923   -0.471897
O     -4.908873    1.301433    0.403190
O     -1.408897   -0.059402   -1.442906
H      4.175635    1.703261    0.819156
H      3.647348    1.265306   -0.887153
H      5.382069    1.174415   -0.384385
H      5.311570   -1.779206    1.471390
H      6.176863   -0.805601    0.222672
H      5.112006   -2.165211   -0.283464
H     -4.852941   -2.429790   -0.688221
H     -5.775807   -0.922353   -0.503117
H     -4.625490   -1.088595   -1.943246
H     -0.415096    2.627264   -0.155511
H     -0.730096    2.170183   -1.838525
H      0.909899    1.903702   -1.213270
H      1.269676    0.162956    1.653819
H      1.968957    1.191607    0.394596
H      2.671399   -1.785983    0.981744
H     -2.704053   -2.469218    0.349886
H     -2.255140   -0.415590    2.393896
H     -0.991048   -1.390898    1.639167
H      0.478408   -1.437215   -0.110023
H      1.156054   -0.396332   -1.368619
H     -2.724425    2.169096    1.374638
H     -2.387475    2.091557   -0.413361
H     -0.697839    1.121202    1.531435
H     -1.156012   -1.010642   -1.591742
