43

C     -2.397186   -2.191186   -0.535759
C     -4.291067    2.405822   -1.026230
C     -4.610363    1.181386   -1.572421
C     -3.204328    2.524387   -0.183947
C     -3.805741    0.110847   -1.239661
C      1.197916   -1.694438    1.931295
C      3.142400   -1.898491    0.351549
C     -1.231242    1.640727    1.069357
C     -0.086065   -1.940863    1.214861
C     -1.002111    0.286866    1.755235
C      4.133343   -1.370626   -0.449200
C      2.427714    0.262896    0.941884
C      5.075979    2.072802   -0.853862
C      2.254636   -1.097877    1.075317
C     -2.395810    1.447073    0.150024
C     -0.704028   -0.696025    0.651144
C     -2.715268    0.221549   -0.396562
C      4.281411   -0.013823   -0.562434
C      3.428210    0.809421    0.133454
N     -1.904023   -0.928526   -0.078837
O      5.193614    0.735404   -1.298257
O      3.817733    2.110019   -0.175825
H     -2.471261   -2.131512   -1.659424
H     -3.435037   -2.387566   -0.169000
H     -1.769167   -3.048448   -0.310822
H     -4.928968    3.245997   -1.292186
H     -5.468324    1.081371   -2.239000
H     -2.949734    3.487767    0.248314
H     -4.066054   -0.844906   -1.674289
H      1.085679   -1.153899    2.898867
H      1.594303   -2.710154    2.232359
H      3.021172   -2.977678    0.444414
H     -0.337190    1.827515    0.443744
H     -1.397668    2.441094    1.799967
H     -0.809998   -2.323463    1.988529
H      0.090944   -2.716018    0.457778
H     -2.021888    0.004899    2.150575
H     -0.253613    0.337939    2.541415
H      4.810932   -2.028209   -1.001844
H      1.796705    0.948124    1.458280
H      5.879959    2.362484   -0.153425
H      5.021047    2.767370   -1.722427
H      0.002436   -0.160049   -0.047387
