26

C      1.184303    0.836982    1.047340
C     -2.446598   -0.274999   -0.304621
C      0.175788    1.688314    0.341499
C     -1.853287    1.032538   -0.774031
C      2.328279   -0.719525   -0.448808
C      1.092253   -0.537052    0.409072
C     -1.282624   -1.211554   -0.055125
C     -0.089118   -0.455611   -0.521199
N     -0.435798    0.917588   -0.680210
O      3.492825   -0.639516    0.278819
O     -1.213297   -1.651046    1.251439
H      2.200562    1.274703    0.951036
H      0.871743    0.762499    2.110987
H     -3.046684   -0.110974    0.604941
H     -3.124556   -0.652734   -1.104479
H     -0.592931    2.103460    1.022642
H      0.675553    2.570856   -0.155768
H     -2.189272    1.889061   -0.144879
H     -2.107186    1.228153   -1.843969
H      2.218941   -1.672225   -1.003127
H      2.306633    0.096853   -1.217088
H      1.004865   -1.306077    1.176348
H     -1.472509   -2.128552   -0.685792
H      0.173262   -0.850251   -1.546119
H      4.245035   -0.620673   -0.362851
H     -2.116183   -1.570219    1.653944
