26

C      1.636264   -1.068058   -0.440616
C     -2.358404   -0.028202   -0.177641
C      0.256343   -1.602393   -0.852493
C     -1.741678   -0.464667   -1.466066
C      2.251513    1.089966    0.621343
C      1.156609    0.064018    0.474642
C     -1.262789    0.739559    0.525352
C     -0.021551    0.591752   -0.310249
N     -0.321159   -0.354444   -1.341730
O      1.782449    2.098480    1.455327
O     -1.115944    0.186034    1.792171
H      2.230744   -1.808315    0.083665
H      2.117850   -0.598547   -1.308523
H     -2.719318   -0.894899    0.422226
H     -3.225404    0.630080   -0.421288
H     -0.241756   -1.883844    0.089615
H      0.315004   -2.379383   -1.602997
H     -2.132914    0.078748   -2.346007
H     -1.968622   -1.550205   -1.662900
H      2.490935    1.459100   -0.393303
H      3.115815    0.594614    1.108301
H      0.844340   -0.392581    1.420545
H     -1.555692    1.809086    0.561215
H      0.269262    1.588826   -0.747833
H      2.218645    2.040243    2.360148
H     -2.020542    0.055030    2.157098
