84

C     -5.127787    1.509320   -1.791970
C     -6.392133    0.687894    0.084575
C     -4.617317   -2.159513    0.583235
C     -1.523932    2.684443   -3.125615
C     -1.353965    0.379060   -3.907486
C      0.678879    1.742505   -3.560410
C      2.860889    1.803014    1.023359
C      3.369961    0.589278   -1.029670
C      4.402018   -3.331487    3.161378
C     -2.358230    2.653888   -0.016703
C     -0.424305   -1.020240    1.716265
C      7.509738    0.108330    0.757257
C      7.915450   -0.950767    1.537598
C      6.140321    0.319198    0.560896
C      6.952558   -1.761417    2.094445
C     -3.744655   -0.065878    1.452767
C     -5.052441    0.463499   -0.653542
C     -4.001468   -1.326123    1.605843
C      5.173657   -0.486740    1.113426
C      5.594680   -1.543803    1.892810
C     -3.983595    0.788483    0.307009
C      3.787468   -0.489855    1.073281
C      3.370453   -1.549828    1.830420
C     -0.562656    0.887968   -1.615479
C      1.439013   -0.035812    0.328764
C      1.129588   -0.685508   -0.958595
C      1.948290   -1.798678    1.976563
C     -1.854120    0.503819   -1.037253
C     -3.648290   -2.000275    2.898700
C     -0.692664    1.454215   -3.044225
C      2.853287    0.406164    0.395076
N      0.278400   -0.288455   -1.777370
N      4.480880   -2.168304    2.312444
N     -2.736727    1.300072   -0.273642
N      1.011074   -0.966839    1.352724
O      1.859406   -1.838445   -1.270693
O      1.571158   -2.781733    2.680378
O     -2.221449   -0.706343   -1.249944
O     -3.114719   -1.408419    3.842836
O     -3.929559   -3.343499    3.045114
H     -4.798727    2.502994   -1.456056
H     -4.428791    1.151649   -2.564521
H     -6.173274    1.523519   -2.183120
H     -6.373957    0.226216    1.072818
H     -6.599683    1.773202    0.157751
H     -7.223482    0.246200   -0.489811
H     -4.653288   -3.217136    1.055184
H     -5.721845   -1.996974    0.431003
H     -4.051150   -2.355921   -0.325564
H     -1.056707    3.452391   -2.453874
H     -1.407748    3.095649   -4.172936
H     -2.582496    2.564072   -2.887095
H     -0.934550    0.403973   -4.919774
H     -2.446288    0.618056   -3.964455
H     -1.285329   -0.588368   -3.393504
H      1.165038    0.839183   -4.014659
H      1.346483    2.205152   -2.795914
H      0.618793    2.493243   -4.384162
H      3.080067    1.770060    2.100561
H      1.858757    2.256845    0.906652
H      3.551447    2.485936    0.457064
H      4.214175   -0.119463   -1.233642
H      3.768379    1.615556   -1.154525
H      2.560500    0.405248   -1.789723
H      4.354158   -4.228563    2.519311
H      3.578501   -3.257610    3.902488
H      5.372935   -3.410406    3.726359
H     -1.260998    2.839764   -0.045288
H     -2.735119    2.903137    1.022433
H     -2.804911    3.419512   -0.666707
H     -0.780750    0.025796    1.730021
H     -0.971620   -1.655646    0.996851
H     -0.553738   -1.430360    2.731672
H      8.244163    0.760423    0.304329
H      8.975616   -1.106455    1.686965
H      5.823379    1.148427   -0.042833
H      7.283445   -2.586161    2.703278
H     -3.263960    0.389537    2.375791
H     -5.017898   -0.483044   -1.179600
H     -4.393592    1.767900    0.816376
H      0.005685    1.645042   -1.078609
H      0.739865    0.854521    0.492118
H      1.801997   -2.215101   -2.205505
H     -3.810638   -3.876006    3.898286
