21

C      0.108081    1.487721   -0.648394
C      1.257530    1.168167    0.278332
C     -2.196964    0.629648    0.126414
C      0.494714   -1.243653    0.336567
C     -0.976462    0.537947   -0.325620
C      1.600250   -0.256956    0.399887
C     -0.657003   -0.877208   -0.554098
C     -2.814702   -0.685611    0.251664
O      2.581018   -0.567009   -0.558085
O     -3.984609   -0.894434    0.662086
O     -1.828875   -1.554817   -0.173508
H     -0.174741    2.536570   -0.527497
H      0.478431    1.325053   -1.682679
H      1.002376    1.597959    1.270084
H      2.138285    1.747733   -0.084951
H     -2.693386    1.580559    0.379750
H      0.902777   -2.207835   -0.034499
H      0.069987   -1.461029    1.344508
H      2.121203   -0.407779    1.393183
H     -0.426244   -1.036487   -1.630378
H      2.998335   -1.418538   -0.222765
