79

C     -2.056368    0.563419    4.431750
C      2.875395   -2.795849   -1.017407
C      3.993391   -2.784710    1.185298
C      5.374883   -2.858979   -0.825761
C     -3.942359   -2.071473    0.506091
C     -0.956318   -2.626312    0.648909
C     -2.612578   -2.649151    3.127986
C      5.673148    0.011421    0.807315
C      4.544220    0.168051   -1.980970
C     -2.345175    1.511319    3.548154
C     -4.663110    0.473110   -5.281710
C     -3.466357    1.112582   -5.129310
C     -5.229904   -0.146520   -4.200129
C     -1.316812    2.260509    2.787113
C     -2.848734    1.130326   -3.913495
C     -4.592076   -0.116216   -2.988322
C     -2.712942    0.551413   -1.522196
C     -2.151516    0.598377   -0.456817
C      1.242364    2.372162    1.361578
C      0.467251    3.447314    1.276803
C     -0.028119    0.310601    0.702209
C     -1.468225    4.153757   -0.121044
C      2.017249    0.988940   -0.526978
C     -3.384090    0.516325   -2.787925
C     -1.545051    2.112808    1.329157
C      4.094524   -2.305721   -0.265596
C      0.818469    1.506419    0.239485
C     -1.469145    0.642187    0.874953
C     -0.704273    2.992340    0.458005
O     -0.670202    5.059423   -0.771615
O      2.761340    0.244077    0.395215
O     -0.027470    2.279410   -0.551627
O     -2.133064   -0.117936    1.783355
Si    -2.360048   -1.746759    1.474726
Si     4.174248   -0.436862   -0.250206
H     -1.016453    0.328161    4.602264
H     -2.811366    0.027604    4.977854
H      3.140273   -3.674939   -1.640478
H      2.425089   -2.019321   -1.661854
H      2.098905   -3.154755   -0.303539
H      2.900116   -2.818749    1.438264
H      4.460573   -3.773732    1.329408
H      4.441624   -2.012521    1.838841
H      5.096295   -3.492987   -1.718115
H      5.939398   -3.458645   -0.077962
H      6.026393   -2.022778   -1.131667
H     -3.724739   -2.138639   -0.573639
H     -4.405313   -3.039474    0.806603
H     -4.698559   -1.294480    0.705725
H     -0.010746   -2.446043    1.161733
H     -0.925422   -2.514417   -0.451513
H     -1.179064   -3.734955    0.792342
H     -1.823615   -2.322188    3.819083
H     -2.454652   -3.725940    2.922713
H     -3.635633   -2.496230    3.490406
H      6.456089   -0.733246    0.571103
H      5.410454   -0.054843    1.891942
H      5.949036    1.047826    0.572208
H      5.622880   -0.012851   -2.158335
H      3.938252   -0.363790   -2.731766
H      4.381200    1.273879   -2.011997
H     -3.388294    1.751485    3.372301
H     -5.183418    0.445363   -6.259671
H     -3.007307    1.602378   -5.964142
H     -6.170970   -0.653547   -4.300349
H     -1.435960    3.336705    3.089463
H     -0.335540    1.862966    3.128958
H     -1.892258    1.637728   -3.774449
H     -5.038456   -0.604266   -2.129950
H      1.997686    2.239762    2.120809
H      0.610259    4.438856    1.686854
H      0.153827   -0.453706   -0.086542
H      0.425513   -0.073965    1.634470
H     -2.123338    4.567604    0.649658
H     -2.158194    3.708724   -0.899396
H      2.582462    1.813549   -0.965885
H      1.652371    0.280424   -1.299389
H     -2.613787    2.393808    1.106541
H     -1.028157    5.984381   -0.581694
