39

C      0.892309   -3.406869   -0.459227
C      4.859113    2.664504    0.364862
C     -2.596840    2.594064    1.352032
C     -1.349930    1.990647    1.119330
C     -3.786361    2.061783    0.870465
C      1.008365    0.750210    0.032206
C     -1.433673   -1.589570   -1.171222
C     -3.981343   -0.966351   -1.079874
C      2.061038   -1.414544    0.127082
C     -2.628326   -0.814000   -0.818779
C      2.240300   -0.005629   -0.290955
C     -1.370280    0.823520    0.375626
C     -0.135382    0.100262    0.060986
C     -3.801442    0.893551    0.126649
C     -0.308279   -1.352264   -0.201843
C     -2.568475    0.336896   -0.078147
C      3.432223    0.656793    0.271873
N     -4.672351    0.081336   -0.496282
N      0.929084   -1.973694   -0.601072
O      4.152070    0.062208    1.087344
O      3.727162    1.943315   -0.125600
H      1.148024   -3.833833   -1.459264
H     -0.087334   -3.804657   -0.163710
H      1.703807   -3.773140    0.228331
H      5.806900    2.128779    0.157606
H      4.761551    2.895180    1.446660
H      4.893054    3.604876   -0.230004
H     -2.592695    3.509392    1.933786
H     -0.422736    2.363211    1.469064
H     -4.726961    2.547635    1.065567
H      1.070217    1.817042    0.237726
H     -1.633083   -2.692208   -1.203449
H     -1.041788   -1.312471   -2.188379
H     -4.480562   -1.733581   -1.629131
H      1.948285   -1.528419    1.216780
H      2.951109   -2.022032   -0.186870
H      2.338995   -0.017854   -1.420753
H     -0.616511   -1.836625    0.771090
H     -5.689252    0.252538   -0.510502
