60

C      1.263334   -3.351159   -1.698953
C     -3.085741   -1.143460   -2.498286
C      3.319302    4.754723    1.108314
C     -2.853654   -3.923630    1.529329
C      3.104411    3.634612    1.882508
C      3.169326    4.731938   -0.260733
C     -1.543982   -3.588801    1.165166
C     -3.757291   -2.951592    1.830227
C      4.641019   -2.602683    0.682490
C     -4.597851    2.593428   -1.528695
C      4.963858   -1.292308    0.971193
C     -4.241885    3.194744   -0.359796
C      2.727353    2.444742    1.289920
C      2.793708    3.553560   -0.868552
C     -1.195142   -2.260343    1.119299
C     -3.398078   -1.635911    1.780837
C      3.528537   -2.827181   -0.100778
C     -4.090259    1.358238   -1.836039
C      4.212003   -0.236388    0.501381
C     -3.364059    2.536058    0.502470
C      0.274607    0.620305   -0.587182
C      0.068468    0.758848    0.902383
C      2.582215    2.440986   -0.080978
C     -2.099096   -1.284605    1.420440
C      2.745880   -1.800437   -0.593409
C     -3.226087    0.713044   -0.984119
C      3.101561   -0.484945   -0.281657
C     -2.851743    1.298907    0.201268
O      1.624471   -2.035044   -1.383371
O     -2.697960   -0.557747   -1.290334
P      2.085662    0.896839   -0.918674
P     -1.710148    0.505265    1.382029
H      0.342025   -3.351968   -2.326812
H      1.059404   -3.936959   -0.789252
H      2.075496   -3.839421   -2.277347
H     -2.831747   -0.513930   -3.380994
H     -4.149308   -1.373347   -2.565348
H     -2.494925   -2.092178   -2.610325
H      3.613181    5.673835    1.591007
H     -3.062301   -4.994162    1.545384
H      3.228017    3.670502    2.967842
H      3.336371    5.613904   -0.890913
H     -0.830264   -4.351939    0.927692
H     -4.774644   -3.250196    2.111523
H      5.226243   -3.442427    1.047294
H     -5.292297    3.121411   -2.204312
H      5.853075   -1.130210    1.596405
H     -4.650594    4.169938   -0.130596
H      2.559334    1.567467    1.899000
H      2.661417    3.486322   -1.957573
H     -0.202382   -1.993632    0.843785
H     -4.142860   -0.880792    2.026939
H      3.226950   -3.844545   -0.360286
H     -4.371687    0.882788   -2.760220
H      4.522907    0.777938    0.767194
H     -3.121158    3.073452    1.419970
H     -0.292779    1.363108   -1.142347
H      0.026763   -0.381059   -0.961017
H      0.695984    0.077884    1.473073
H      0.297038    1.838213    1.142537
