39

C      0.970820   -3.266469   -0.208180
C      4.181202    1.770240   -2.632721
C     -2.526414    3.042877    0.421744
C     -1.300294    2.379362    0.286111
C     -3.657410    2.326345    0.757943
C      1.132512    0.846710    0.404719
C     -1.298726   -1.819575    0.985528
C     -3.850404   -1.205836    1.361472
C      1.982669   -1.193664   -0.538124
C     -2.492955   -0.970490    1.057776
C      2.401847    0.053171    0.262383
C     -1.246562    1.022414    0.491340
C     -0.018561    0.218155    0.351652
C     -3.640369    0.958139    0.972512
C     -0.228124   -1.224043    0.161789
C     -2.405659    0.368550    0.824034
C      3.412261    0.750701   -0.561767
N     -4.510913   -0.015555    1.299630
N      1.042575   -1.909510    0.291435
O      4.559008    1.066777   -0.092148
O      3.182466    1.103117   -1.884126
H      0.833287   -3.191747   -1.314966
H      0.192566   -3.869667    0.276432
H      1.968154   -3.721695   -0.035482
H      4.842668    1.032553   -3.165676
H      3.768662    2.525220   -3.309208
H      4.824119    2.297824   -1.898795
H     -2.561109    4.095562    0.261312
H     -0.402728    2.886104    0.025688
H     -4.615540    2.826170    0.866470
H      1.233905    1.905500    0.546494
H     -0.982292   -1.997914    2.048916
H     -1.538849   -2.836401    0.586998
H     -4.291190   -2.164078    1.601752
H      1.436798   -0.784945   -1.426235
H      2.838349   -1.775822   -0.863955
H      2.810535   -0.265690    1.233534
H     -0.523664   -1.389548   -0.921281
H     -5.522641    0.127156    1.474997
