41

C     -2.668699    2.477169    0.305574
C     -0.267270    2.568468   -0.071470
C     -2.464651   -3.479151   -0.435978
C      5.902922    0.809352    0.496988
C     -2.590642   -1.081141   -1.034314
C     -2.635032   -0.393088    0.320158
C     -0.617617   -1.916331    0.118139
C      3.449530    0.253012    0.820581
C     -1.491536    1.704227   -0.250080
C     -1.664987   -2.278896   -0.887941
C      4.558448    0.587291   -0.075977
C     -1.351327    0.400304    0.503263
C     -0.222045   -0.437301    0.015343
C      2.162285    0.061005    0.085109
O      4.350626    0.675188   -1.271891
O      2.130738    0.192398   -1.166011
O      0.981524   -0.259126    0.715192
H     -3.595036    2.282858   -0.284451
H     -2.820172    2.259023    1.368306
H     -2.472999    3.579786    0.161430
H     -0.540508    3.625444    0.146408
H      0.371371    2.238017    0.765404
H      0.354015    2.618309   -1.005462
H     -2.921421   -3.275757    0.558257
H     -1.828137   -4.360271   -0.335787
H     -3.235873   -3.658751   -1.204760
H      5.844534    0.982556    1.579436
H      6.416851    1.669441   -0.021584
H      6.513788   -0.096200    0.300205
H     -2.157817   -0.438635   -1.806896
H     -3.599943   -1.456396   -1.292555
H     -3.539554    0.239464    0.437987
H     -2.691527   -1.167440    1.104744
H      0.328067   -2.487251   -0.076859
H     -0.900372   -2.142068    1.157346
H      3.674134   -0.715298    1.314343
H      3.274528    0.989860    1.617004
H     -1.663378    1.571806   -1.320480
H     -1.156807   -2.532119   -1.845096
H     -1.198054    0.664169    1.568093
H     -0.017957   -0.273925   -1.071719
