61

C      6.456167    1.719296   -1.568555
C      7.334480    0.005369   -0.024666
C     -1.186616   -1.239878    3.183063
C     -1.355114    1.064016    2.461587
C     -5.244092    2.046354   -1.250118
C      1.996314   -1.873240   -1.484883
C      3.305549   -1.580862   -1.793341
C      4.057841    0.952254    0.799331
C     -5.589667    0.960595   -0.284547
C      5.304375    1.216087    0.488537
C     -4.122532    1.514983   -2.137236
C     -1.071065   -2.165670   -0.310228
C     -3.528450    0.419868    1.052062
C      1.366717   -1.242576   -0.433256
C      3.341076   -0.031668    0.003399
C      0.082556   -1.325194    0.108298
C      4.006155   -0.637872   -1.037226
C     -2.504678   -0.717894    1.134556
C      2.022358   -0.306935    0.336611
C     -0.031499   -0.464605    1.173235
C     -4.591478   -1.321387   -0.380491
C     -2.236731   -0.162754   -1.231844
C      6.047210    0.595216   -0.607936
C     -1.300327   -0.373285    1.917459
C     -4.368694    0.139256   -0.196074
C     -2.280699   -1.273931   -0.235120
N      1.180355    0.143974    1.283371
N     -3.496708   -2.020251   -0.581875
N     -3.487696    0.545847   -1.310547
O     -5.828841   -1.915468   -0.347492
O     -1.231478    0.120627   -1.918870
O      5.339237   -0.341351   -1.352680
H      7.239414    1.306599   -2.228055
H      5.533796    1.898288   -2.192918
H      6.783199    2.615802   -1.029389
H      8.017804    0.878357    0.123874
H      7.825697   -0.677845   -0.724262
H      7.132645   -0.421879    0.964318
H     -1.822331   -0.803125    3.999037
H     -0.141283   -1.166058    3.569879
H     -1.459611   -2.274201    2.972866
H     -0.549180    1.192648    3.213631
H     -1.134792    1.786957    1.639246
H     -2.306607    1.270726    2.962261
H     -6.093360    2.405342   -1.853897
H     -4.820865    2.913616   -0.702143
H      1.489385   -2.607693   -2.093034
H      3.838857   -2.056247   -2.615235
H      3.537476    1.424521    1.611172
H     -5.870333    1.331839    0.724400
H     -6.488254    0.382174   -0.637942
H      5.818433    1.950440    1.092987
H     -4.596184    1.094974   -3.047286
H     -3.447414    2.326343   -2.471659
H     -0.938299   -2.449788   -1.363015
H     -1.235918   -3.010960    0.364857
H     -3.035515    1.396964    0.875260
H     -4.157886    0.440794    1.967744
H     -3.065420   -1.522198    1.703218
H      1.424593    0.859211    1.999554
H     -5.862072   -2.934523   -0.268098
