41

C      7.857288    0.930867    0.464586
C     -7.702519    0.392158    0.828040
C     -6.831580    0.292703    1.885793
C     -7.248845    0.293824   -0.450276
C     -5.474339    0.089512    1.639027
C     -5.894923    0.091799   -0.670099
C     -3.586243   -0.223847    0.089546
C      3.677665    1.291825    0.194154
C      3.449919   -1.053613    0.136436
C      5.046768    1.164977    0.282527
C      4.823176   -1.176249    0.225172
C     -3.017525   -0.336434   -1.095358
C      0.613960   -0.842602   -0.273234
C     -4.991790   -0.013244    0.351560
C      2.850261    0.165573    0.118896
C      5.643004   -0.070709    0.299570
C      1.399634    0.411803    0.026483
C     -1.573132   -0.549575   -1.235137
N     -0.798129   -0.636367   -0.222491
O      1.090801    1.409837   -0.895806
O     -1.028193   -0.660554   -2.495436
O      7.041193   -0.215428    0.389571
H      7.862758    1.425103   -0.528271
H      7.448376    1.599132    1.250456
H      8.898057    0.646148    0.715340
H     -8.757141    0.549353    0.992623
H     -7.188509    0.370081    2.892192
H     -7.923508    0.370926   -1.267582
H     -4.757054    0.006076    2.450148
H     -5.601508    0.022848   -1.707086
H     -2.886253   -0.303655    0.947420
H      3.260928    2.295574    0.184791
H      2.801840   -1.939743    0.076810
H      5.680479    2.051426    0.340530
H      5.251745   -2.166355    0.235572
H     -3.663695   -0.264699   -1.963677
H      0.836436   -1.643019    0.486735
H      0.865948   -1.293941   -1.253777
H      1.055524    0.772554    1.017867
H      1.570726    1.236331   -1.742660
H     -0.101599   -0.264408   -2.720954
