65

C     -4.215923   -0.750547    1.875206
C     -4.510260   -0.966842   -0.527546
C      3.303380    0.121406   -1.695057
C     -2.105575    0.755298   -1.820528
C      0.389874   -1.353492   -1.754946
C     -3.188465    2.090492    1.028560
C      3.779636   -1.828050    0.975073
C      2.547968   -1.978432    0.194299
C     -1.827563   -1.680488    0.193552
C      0.639850    1.549663   -1.141429
C     -4.276992    1.231751    0.472574
C     -1.967383    2.122273    0.180192
C      1.985465    1.734430   -0.461304
C     -0.343855   -1.725048    0.507957
C      5.606481   -0.620557    2.015774
C      4.915388    1.398092    0.195757
C      4.358995   -0.677274    1.214375
C      3.774395    0.580867    0.691465
C     -2.295044   -0.273886    0.466514
C      1.817136   -0.691903    0.180537
C     -0.142797    0.599912   -0.256721
C     -3.775065   -0.203061    0.507809
C      2.710487    0.385337   -0.359586
C     -1.620459    0.742530   -0.406582
C      0.430682   -0.752948   -0.402596
O      6.082988   -1.669355    2.448406
O      4.969921    2.604607    0.268930
H     -3.387627   -0.706177    2.608160
H     -5.122975   -0.224390    2.226668
H     -4.481834   -1.831831    1.766680
H     -4.915889   -0.286189   -1.334060
H     -3.978595   -1.785196   -1.008127
H     -5.447996   -1.426089   -0.091836
H      2.796092    0.728355   -2.505008
H      3.423748   -0.922228   -1.977868
H      4.350017    0.554839   -1.700987
H     -1.207093    0.948014   -2.478780
H     -2.778001    1.636538   -2.044954
H     -2.661354   -0.126099   -2.134759
H      1.082994   -0.944216   -2.494264
H      0.681155   -2.440650   -1.642677
H     -0.604749   -1.354733   -2.183267
H     -2.960418    1.697850    2.060445
H     -3.547544    3.114753    1.173181
H      4.279591   -2.728453    1.405912
H      2.714054   -2.426829   -0.806069
H      1.957043   -2.779063    0.740320
H     -1.966083   -2.022738   -0.825960
H     -2.331880   -2.367612    0.877486
H      0.156837    2.516647   -1.255684
H      0.798073    1.039037   -2.118204
H     -5.167058    1.355414    1.157635
H     -4.627609    1.539389   -0.519434
H     -1.139254    2.534032    0.783680
H     -2.122944    2.869115   -0.649230
H      2.595178    2.400061   -1.105165
H      1.819644    2.163638    0.547536
H     -0.205242   -1.479185    1.567441
H     -0.030765   -2.786852    0.282006
H      6.047894    0.324535    2.190013
H      5.747504    0.874887   -0.258617
H      3.383935    1.123467    1.582491
H     -1.930557   -0.047497    1.516349
H      1.653037   -0.415944    1.256728
H      0.085405    0.936631    0.801529
