39

C      2.917937   -3.931293    1.218708
C      2.709054    5.129405   -1.556059
C      2.911088   -2.656374    2.038749
C      1.497786    4.259663   -1.679652
C     -5.218477   -2.010077   -0.239435
C     -4.292749   -1.797977   -1.237220
C     -4.955548   -1.561053    1.054232
C     -3.125576   -1.142631   -0.922359
C     -3.780363   -0.915583    1.312554
C      1.781711    0.103922   -0.295955
C     -2.822551   -0.684425    0.325509
C      0.517435    0.916342   -0.126746
C      1.726969   -1.155537    0.463182
C     -1.591496    0.017840    0.629361
C      0.562436    2.164636   -0.893952
O      0.739188   -1.947103    0.425850
O     -1.316892    0.449550    1.775686
O     -0.443033    2.418180   -1.642675
O      2.779442   -1.512722    1.258736
O      1.565469    3.094839   -0.900296
O     -0.666790    0.232494   -0.375918
H      1.927792   -4.282387    0.919291
H      3.392047   -4.716820    1.866182
H      3.629758   -3.814571    0.371484
H      3.569180    4.497614   -1.263668
H      2.909521    5.663744   -2.510690
H      2.573616    5.867732   -0.748659
H      3.864831   -2.609957    2.595983
H      2.092680   -2.760107    2.799456
H      1.235265    4.040020   -2.731753
H      0.631827    4.853973   -1.263793
H     -6.162096   -2.521745   -0.422612
H     -4.512483   -2.149799   -2.231428
H     -5.701499   -1.739963    1.825816
H     -2.381735   -0.968817   -1.710063
H     -3.566046   -0.565638    2.311073
H      2.666057    0.678131   -0.049984
H      1.834998   -0.172261   -1.383225
H      0.501248    1.228755    0.966113
