105

C     14.353357    1.417353   -1.336760
C    -12.389076    0.584778   -3.383061
C     13.309668    1.362534   -0.249051
C     12.001032    0.848934   -0.829652
C     12.254800   -0.526887   -1.387908
C     11.032940   -1.155153   -1.999754
C      9.939655   -1.302891   -0.974624
C      8.698256   -1.940300   -1.567957
C      7.618460   -2.091848   -0.527782
C     -5.600279    0.805983   -0.677964
C     -5.225683    1.955677    0.135588
C     -6.212538   -0.355448    0.025814
C      7.187688   -0.770760    0.071766
C     -4.305115    1.898160    1.257152
C     -7.474823   -0.100836    0.761317
C      6.119342   -1.026872    1.094675
C     -2.900628    1.493393    1.147120
C     -8.601100    0.405921   -0.111911
C      5.688892    0.299475    1.691160
C     -2.703240    0.091387    0.707912
C     -9.863305    0.646906    0.662985
C      4.635034    0.182654    2.723461
C     -1.270526   -0.384035    0.646855
C      3.110479    0.667261    0.011603
C      1.928495    0.576885   -0.959966
C    -11.522711   -1.166741   -1.962414
C    -10.725245   -1.664446    0.327488
C    -12.751478   -0.686440   -2.636248
C    -11.736338   -1.225139   -0.670277
C    -10.408671   -0.589218    1.341551
C      3.328711   -0.378097    2.330150
C     -0.416060    0.391307   -0.296328
C      2.520969    0.336240    1.315863
C      0.980771   -0.292302   -0.216214
C    -13.098146   -0.798444   -0.416329
O    -11.497403   -0.251698    2.134959
O      2.530562   -0.405637    3.515533
O     -0.197286    1.669588    0.242006
O    -13.660549   -0.725823    0.723810
O    -13.684119   -0.483119   -1.621185
O      1.301437   -0.306327    1.100671
H     13.845283    1.409793   -2.321091
H     15.007816    2.311858   -1.214645
H     15.030356    0.530128   -1.222151
H    -11.427356    0.384018   -3.924002
H    -12.281161    1.432011   -2.699950
H    -13.173942    0.736656   -4.156291
H     13.149659    2.388457    0.161754
H     13.645913    0.667799    0.544493
H     11.272828    0.761596    0.011894
H     11.634652    1.563653   -1.580048
H     12.554512   -1.163992   -0.519741
H     13.076788   -0.507083   -2.143053
H     10.694350   -0.468303   -2.817986
H     11.328575   -2.144103   -2.407298
H     10.309470   -1.901771   -0.122326
H      9.663084   -0.291715   -0.602198
H      8.915939   -2.948048   -1.961032
H      8.299322   -1.296380   -2.378527
H      7.914685   -2.804087    0.275450
H      6.744076   -2.571331   -1.048819
H     -4.913550    0.452939   -1.459708
H     -6.481127    1.193541   -1.346262
H     -6.175481    2.489943    0.442213
H     -4.789292    2.730201   -0.598377
H     -6.387370   -1.191746   -0.687318
H     -5.481715   -0.771783    0.768922
H      8.016631   -0.249758    0.568128
H      6.768795   -0.129116   -0.730371
H     -4.290822    2.955841    1.720585
H     -4.724686    1.317997    2.150753
H     -7.363184    0.529777    1.661518
H     -7.809529   -1.107599    1.149903
H      5.286166   -1.631753    0.709040
H      6.583191   -1.626612    1.912174
H     -2.287237    2.225848    0.555267
H     -2.426719    1.575471    2.178248
H     -8.818881   -0.293567   -0.939937
H     -8.315192    1.414918   -0.534864
H      5.484646    1.065778    0.946870
H      6.615401    0.674890    2.229695
H     -3.163916   -0.103466   -0.284933
H     -3.193827   -0.636071    1.437752
H     -9.723839    1.432048    1.437815
H    -10.632340    0.989974   -0.054378
H      4.457232    1.212617    3.132828
H      5.013923   -0.424360    3.590974
H     -0.894346   -0.341703    1.697564
H     -1.212124   -1.453627    0.329590
H      3.504956    1.710097   -0.063909
H      3.821196   -0.098453   -0.315789
H      1.522650    1.583018   -1.106966
H      2.224672    0.096228   -1.899546
H    -10.617136   -1.414743   -2.522940
H    -11.058384   -2.569319    0.876237
H     -9.793316   -1.915374   -0.205724
H    -13.147283   -1.441446   -3.365544
H     -9.637816   -1.000969    2.021522
H      3.386152   -1.462640    2.043157
H     -0.812272    0.387572   -1.305686
H      2.218113    1.326019    1.796001
H      0.893415   -1.316263   -0.672938
H    -11.759741   -0.927727    2.778837
H      1.711199    0.123060    3.418668
H     -0.098293    1.525188    1.227730
