105

C    -13.847834    3.295188    2.057530
C     13.697626    2.870860   -0.623137
C    -12.722390    3.588827    1.077482
C    -12.378036    2.272745    0.411946
C    -11.264476    2.481320   -0.584913
C    -10.871395    1.213408   -1.302382
C    -10.400306    0.198653   -0.313502
C     -9.991192   -1.102280   -0.896036
C     -8.891528   -1.120349   -1.869265
C      5.725983   -1.261740    1.277066
C      5.315966   -1.463611   -0.131793
C      6.392023    0.056536    1.492186
C     -7.549866   -0.621518   -1.396967
C      4.358951   -0.409151   -0.587139
C      7.622363    0.219428    0.665296
C     -7.010794   -1.381775   -0.238595
C      3.108190   -0.374347    0.228186
C      8.632193   -0.869308    1.007260
C     -5.673331   -0.843893    0.176410
C      2.373414   -1.666541    0.185368
C      8.997264   -0.822599    2.434713
C     -4.697787   -1.017233   -0.959503
C      1.919044   -2.126901   -1.155242
C     -2.149183   -2.270930   -1.864152
C     -0.988104   -2.331471   -0.859344
C     11.917746    2.147793    0.825789
C     11.057323    0.691607    2.600179
C     12.403600    2.084745   -0.555477
C     11.566795    0.929321    1.282861
C      9.696798    0.332903    2.957919
C     -3.304860   -0.528318   -0.596424
C      0.944253   -1.201803   -1.845631
C     -2.421565   -0.771646   -1.815459
C     -0.328195   -1.007584   -1.021966
C     11.999572   -0.001455    0.241587
O      8.894583    1.513108    2.755186
O     -3.394081    0.873539   -0.489660
O      1.534419    0.020046   -2.099279
O     11.888178   -1.277369    0.238282
O     12.574852    0.719016   -0.773374
O     -1.186090   -0.197731   -1.684583
H    -14.205814    4.261898    2.449504
H    -13.464827    2.663510    2.896506
H    -14.713878    2.786127    1.563673
H     13.814299    3.280929   -1.636490
H     14.547339    2.204474   -0.378751
H     13.683956    3.728615    0.097202
H    -11.875851    3.959755    1.688670
H    -13.105298    4.323222    0.356579
H    -12.038576    1.605711    1.256008
H    -13.258622    1.762596   -0.014349
H    -11.493887    3.311509   -1.291763
H    -10.402829    2.886199    0.024177
H    -10.149802    1.438758   -2.106505
H    -11.805852    0.848218   -1.824284
H    -11.293131   -0.032455    0.347661
H     -9.649030    0.642551    0.379978
H    -10.902531   -1.508806   -1.431046
H     -9.858836   -1.823595   -0.052267
H     -8.732215   -2.195346   -2.176390
H     -9.145969   -0.592801   -2.790417
H      4.822744   -1.263742    1.961051
H      6.372943   -2.130893    1.584997
H      6.190476   -1.439562   -0.849610
H      4.811617   -2.458278   -0.289812
H      6.581027    0.192449    2.590001
H      5.618658    0.841775    1.200929
H     -7.524781    0.476091   -1.253781
H     -6.867526   -0.818805   -2.279404
H      4.153623   -0.624552   -1.666401
H      4.857248    0.605262   -0.626401
H      7.365780    0.084464   -0.433866
H      8.034144    1.238805    0.775165
H     -6.812404   -2.465909   -0.511188
H     -7.721390   -1.465632    0.611813
H      2.449540    0.498350   -0.055798
H      3.336880   -0.161168    1.309588
H      9.446030   -0.801429    0.280459
H      8.094971   -1.856468    0.803713
H     -5.776365    0.266039    0.345224
H     -5.267485   -1.343149    1.077270
H      3.024862   -2.466194    0.604123
H      1.506335   -1.620257    0.903042
H      8.056253   -1.063058    3.048607
H      9.612724   -1.787698    2.691595
H     -5.008993   -0.457476   -1.879537
H     -4.735040   -2.082615   -1.237819
H      1.596545   -3.173504   -1.108682
H      2.831738   -2.146251   -1.826048
H     -2.934054   -2.886415   -1.443454
H     -1.747112   -2.588752   -2.825697
H     -1.437579   -2.393409    0.179923
H     -0.377730   -3.212741   -1.048382
H     11.854693    3.078162    1.397464
H     11.797288   -0.099678    3.091335
H     11.331296    1.623604    3.253221
H     11.641142    2.548440   -1.221479
H      9.679441    0.244543    4.153399
H     -2.906689   -0.948841    0.316801
H      0.653696   -1.651320   -2.803658
H     -2.986702   -0.411728   -2.697581
H     -0.055979   -0.548439   -0.033928
H      9.471521    2.288146    2.623264
H     -3.763506    1.210538   -1.364171
H      1.231348    0.421783   -2.955403
