42

C     -3.784693   -0.092939   -0.602460
C     -3.197218    0.621063    1.663469
C      0.998601    1.873917   -0.732224
C      1.615358   -0.220850   -1.920478
C      2.214710   -1.208016   -0.956300
C     -1.975673   -1.296121    0.641117
C     -1.581075    0.898936   -0.231181
C      3.605346    1.045609    0.969283
C     -0.677068   -1.335980   -0.085483
C     -0.590661   -0.046683   -0.846460
C      2.490045    0.110131    1.176341
C      0.522418   -1.390974    0.806898
C     -2.653247    0.009506    0.394996
C      0.839835    0.400442   -0.752196
C      1.578759   -0.453070    0.183365
O      3.846830    1.380873   -0.356445
O      2.319799   -0.230614    2.361813
O      1.041712   -2.684828    0.922550
H     -3.734800    0.701304   -1.374309
H     -3.786904   -1.093024   -1.094934
H     -4.763170    0.017177   -0.090814
H     -2.405736    1.246834    2.112053
H     -4.035458    1.295764    1.392413
H     -3.503064   -0.195787    2.334616
H      1.575677    2.230776   -1.606328
H     -0.028071    2.325925   -0.887508
H      1.345084    2.316693    0.208309
H      0.967046   -0.711243   -2.682994
H      2.319192    0.459845   -2.424692
H      3.317564   -1.155843   -1.007150
H      1.849898   -2.232533   -1.132455
H     -2.659544   -2.106747    0.304682
H     -1.823747   -1.401355    1.734134
H     -2.027251    1.570757   -0.991962
H     -1.180190    1.512287    0.583338
H      3.424032    2.036218    1.487087
H      4.560422    0.690776    1.427490
H     -0.661676   -2.214429   -0.753309
H     -0.859426   -0.235969   -1.896663
H      0.292153   -0.983854    1.807890
H      4.785150    1.721941   -0.404557
H      0.419041   -3.175916    1.519361
