57

C      7.128349   -1.334603   -0.038060
C     -6.680193   -1.927255   -0.172597
C      7.253417   -0.167923    0.905928
C      5.909203    0.394885    1.246267
C      5.218441    0.869689   -0.023650
C      3.873479    1.427385    0.361108
C      3.145342    1.917905   -0.859143
C      2.899648    0.840923   -1.878361
C      2.083094   -0.305207   -1.359452
C      0.719877    0.230849   -0.909646
C     -0.137093   -0.892480   -0.383247
C     -1.492451   -0.383326    0.087610
C     -2.288985    0.269096   -0.980221
C     -3.598485    0.781622   -0.474437
C     -6.362377   -1.114763    1.040717
C     -4.450595   -0.275555    0.066321
C     -5.809681    0.240312    0.558474
C     -5.664853    1.066561    1.770493
C     -5.117308   -1.647581    1.688919
O     -4.614838    1.563043    2.199628
O     -6.825464    1.326184    2.526142
O     -5.059851   -2.617553    2.483355
O     -4.028416   -0.892860    1.268697
H      8.001357   -2.023344    0.071129
H      6.187134   -1.886475    0.172386
H      7.138420   -1.000856   -1.106850
H     -7.694680   -2.378495   -0.015474
H     -5.954435   -2.754687   -0.331415
H     -6.715787   -1.303554   -1.109658
H      7.777851   -0.484268    1.830984
H      7.833424    0.636294    0.371826
H      5.999747    1.201176    1.987629
H      5.267774   -0.405102    1.704802
H      5.064296    0.036031   -0.724798
H      5.875889    1.608685   -0.489604
H      4.028596    2.328067    1.013807
H      3.233979    0.682534    0.859011
H      3.769169    2.698325   -1.386901
H      2.229141    2.435616   -0.543027
H      3.847267    0.460286   -2.284337
H      2.300022    1.295859   -2.709193
H      1.925701   -1.009740   -2.190497
H      2.594701   -0.769878   -0.493086
H      0.841178    1.015391   -0.156144
H      0.195452    0.644160   -1.817571
H      0.409323   -1.348011    0.460524
H     -0.248420   -1.682755   -1.148667
H     -1.998927   -1.275592    0.532497
H     -1.332360    0.334621    0.915795
H     -2.443083   -0.517529   -1.787563
H     -1.716972    1.062829   -1.523883
H     -3.391137    1.628482    0.215331
H     -4.133487    1.242875   -1.339327
H     -7.177914   -0.990809    1.749169
H     -4.640552   -1.054495   -0.668489
H     -6.411706    0.675638   -0.236813
H     -6.761220    1.529375    3.517161
