64

C     -4.952746   -1.504672   -0.045257
C      4.072770    2.498718    0.577594
C     -1.293767   -2.904183    0.879923
C     -1.588805   -2.325792   -1.441415
C      1.454163    1.474661    3.279650
C     -6.410834    1.595797   -1.649060
C      6.634537    0.462918   -1.290994
C     -6.293585    0.338733   -1.104286
C      6.025437    1.530476   -0.668283
C     -5.318794    2.427529   -1.754561
C      6.007437   -0.758765   -1.359498
C     -0.184095    1.159354    1.498116
C      1.031279   -0.764450    2.245458
C     -5.086759   -0.137625   -0.644544
C      4.761438    1.377761   -0.100123
C     -0.333979    0.611026    0.097173
C      0.942592   -1.411989    0.904759
C     -4.088020    1.949727   -1.289033
C      4.760086   -0.925077   -0.803592
C     -3.975124    0.687925   -0.743492
C      4.138022    0.157886   -0.169866
C     -1.655213    1.046388   -0.384526
C      2.289945   -1.282738    0.288630
C     -0.115592   -0.863632   -0.017838
C     -2.754119    0.223296   -0.285323
C      2.897753   -0.033036    0.375073
C     -1.819004    2.298069   -0.937124
C      2.963373   -2.286347   -0.345823
C     -1.354102   -1.699497   -0.053537
C      1.187332    0.741621    1.987161
O     -0.825641    3.069948   -1.038725
O      2.403689   -3.429073   -0.422975
O     -3.008817    2.692301   -1.359925
O      4.153972   -2.074718   -0.860271
O     -2.545226   -1.022909    0.273217
O      2.198339    0.992474    1.028821
H     -4.359878   -2.190913   -0.653858
H     -5.998175   -1.936524   -0.063614
H     -4.699488   -1.471390    1.028689
H      4.772800    3.389092    0.505806
H      3.951363    2.356347    1.668502
H      3.163751    2.852565    0.054141
H     -2.351881   -3.303944    0.892787
H     -1.062887   -2.657028    1.912179
H     -0.701284   -3.738070    0.445245
H     -0.580482   -2.675748   -1.769768
H     -1.959221   -1.559390   -2.148311
H     -2.226064   -3.200616   -1.338391
H      0.593062    1.317528    3.945821
H      2.415553    1.151763    3.732720
H      1.536174    2.539200    3.055614
H     -7.354043    1.979905   -2.013322
H      7.620103    0.578468   -1.735064
H     -7.166365   -0.279509   -1.039118
H      6.509090    2.484308   -0.611902
H     -5.349363    3.424154   -2.172797
H      6.466564   -1.627869   -1.848579
H     -0.940341    0.656189    2.138515
H     -0.305871    2.242050    1.443576
H      1.985356   -1.078325    2.706349
H      0.169446   -0.865123    2.898791
H      0.424945    1.183966   -0.516974
H      0.784506   -2.496705    1.065684
H      0.344686   -0.986486   -1.053439
