26

C     -0.887351    0.629574   -1.401099
C      2.430865   -0.076101    0.092630
C      0.963086    0.252894    0.036134
C     -1.621617    0.700203   -0.080217
C      0.095712   -0.967026    0.314077
C     -1.217048   -0.418752    0.847966
N      0.547956    0.778606   -1.241169
O      3.133570    1.093220   -0.153203
O     -2.980415    0.579906   -0.365813
O      0.689235   -1.871243    1.154021
O     -2.176972   -1.384637    1.006431
Cl     0.687947    0.000000    0.000000
H     -1.227657    1.527440   -1.986736
H     -1.158185   -0.263467   -1.993028
H      2.653372   -0.375188    1.141012
H      2.719513   -0.890299   -0.569928
H      0.772237    1.044891    0.791924
H     -1.409149    1.663737    0.389508
H     -0.089271   -1.466672   -0.671002
H     -0.971103    0.006049    1.860777
H      1.068803    0.335751   -2.010003
H      2.989309    1.399761   -1.096428
H     -3.519117    1.154330    0.215656
H      1.113971   -1.504828    1.944640
H     -1.919742   -1.948149    1.773850
H     -0.687947    0.000000    0.000000
