39

C      4.072661    0.834652    0.581877
C      2.304908   -0.197456    2.075227
C     -3.665758    1.261723    0.154233
C     -1.916636   -1.911457    1.872598
C     -1.398708    1.873913   -0.424582
C     -0.048741    1.261548   -0.649101
C      2.143203   -0.262829   -0.362490
C     -1.340863   -0.745999   -1.494721
C      2.767005    0.083497    0.715292
C     -2.446029    0.877290   -0.133402
C     -1.193812   -0.924538    0.991770
C     -2.071944   -0.547360   -0.178042
C      0.893663   -0.978005   -0.602843
C      0.120003   -1.452260    0.540587
C     -0.022409   -0.023609   -1.389414
O      0.565948   -2.375798    1.213654
O      0.536068    0.153111   -2.680359
H      4.679553    0.748411    1.481107
H      3.794363    1.889222    0.391035
H      4.603707    0.450365   -0.333234
H      1.235959    0.025981    2.235868
H      2.631363   -1.190565    2.458125
H      2.818377    0.543714    2.783951
H     -4.481903    0.554877    0.378813
H     -3.975665    2.308267    0.195706
H     -2.845514   -1.392619    2.232188
H     -2.224098   -2.824039    1.362099
H     -1.279999   -2.124895    2.764422
H     -1.665195    2.538601   -1.279172
H     -1.321443    2.527214    0.493862
H      0.532720    1.262659    0.312643
H      0.517826    2.021910   -1.272324
H      2.647858    0.037821   -1.321751
H     -1.227991   -1.811231   -1.671831
H     -1.984130   -0.293563   -2.284806
H     -1.015841   -0.013808    1.580976
H     -2.954913   -1.214143   -0.196644
H      1.059966   -1.896928   -1.250546
H      1.156438    0.926327   -2.582147
