41

C      3.617803    0.574926    0.110726
C      2.597877   -1.090601    1.552251
C     -2.303038    2.575598   -0.252827
C      0.161209    2.311634   -0.282996
C      1.107229    1.375383   -0.945094
C     -2.447259   -1.725030   -0.669457
C     -2.527358   -0.386349    0.033366
C     -0.286905   -1.866439    0.388592
C     -1.505854   -3.949178    0.039987
C      2.329906    0.199526    0.812648
C     -1.134323    1.716250    0.151970
C     -1.369681   -2.503100   -0.060457
C      1.232556    0.034038   -0.236524
C     -0.047470   -0.428588    0.339201
C     -1.211042    0.314620   -0.334844
O     -0.645727   -4.714058    0.542645
O     -1.136071    0.210218   -1.723674
H      3.840685    1.667824    0.223710
H      3.607841    0.266631   -0.963920
H      4.491319    0.052164    0.557873
H      3.586085   -0.951420    2.084705
H      2.786642   -1.936787    0.854421
H      1.871892   -1.307055    2.341083
H     -3.258205    2.151954    0.051529
H     -2.192628    3.546554    0.295351
H     -2.249780    2.845085   -1.338796
H     -0.074069    3.122901   -1.017655
H      0.672677    2.828442    0.561451
H      2.126624    1.864242   -0.914073
H      0.926245    1.244609   -2.046970
H     -3.417280   -2.260526   -0.659003
H     -2.153242   -1.510712   -1.732734
H     -3.334643    0.180188   -0.465290
H     -2.651010   -0.476645    1.119946
H      0.460775   -2.511022    0.823039
H     -2.400634   -4.404444   -0.339221
H      2.096414    0.980649    1.540488
H     -1.136025    1.684561    1.268188
H      1.594031   -0.691770   -0.990333
H     -0.079273   -0.056990    1.407712
H     -1.546296    1.022719   -2.127013
