57

C      7.329411   -1.235752    1.984210
C     -7.110270   -1.712157    1.927793
C      6.621315   -1.194300    0.625750
C      6.785625    0.196574    0.093196
C      6.126939    0.355329   -1.244022
C      4.658732    0.091973   -1.239669
C      3.915877    1.025329   -0.308592
C      2.434379    0.762396   -0.302341
C      1.796644    0.926505   -1.638463
C      0.319617    0.648870   -1.575951
C     -0.414463    1.553868   -0.643838
C     -1.890534    1.212184   -0.651636
C     -2.172849   -0.192585   -0.220335
C     -3.652347   -0.500832   -0.237562
C     -5.890264   -1.394321    1.088119
C     -4.437635    0.383383    0.684843
C     -5.926144    0.036739    0.637522
C     -6.511947    0.277329   -0.669987
C     -4.727821   -1.370207    2.039421
O     -5.873465    0.873396   -1.564832
O     -7.797038   -0.149417   -0.954564
O     -4.321524   -2.328141    2.736322
O     -4.157646   -0.082791    2.025262
H      8.188965   -0.558018    1.914077
H      6.611641   -0.797164    2.713294
H      7.624968   -2.273286    2.240302
H     -6.944030   -1.444735    2.994813
H     -7.333006   -2.777439    1.845223
H     -7.928600   -1.054175    1.570827
H      5.533954   -1.388303    0.770893
H      7.095431   -1.930752   -0.062288
H      7.877375    0.363892   -0.057796
H      6.430241    0.932353    0.842498
H      6.308376    1.337002   -1.686117
H      6.597796   -0.393597   -1.928004
H      4.296398    0.168693   -2.282891
H      4.502275   -0.962716   -0.935431
H      4.157219    2.086272   -0.507389
H      4.292060    0.807894    0.717856
H      2.007896    1.497213    0.443202
H      2.238185   -0.240989    0.083751
H      2.236607    0.145059   -2.312902
H      2.020982    1.949007   -2.003118
H     -0.067787    0.728889   -2.616167
H      0.195659   -0.421142   -1.295256
H     -0.015857    1.379570    0.394044
H     -0.316249    2.613960   -0.874935
H     -2.491752    1.963265   -0.120345
H     -2.236448    1.284578   -1.725151
H     -1.722248   -0.427721    0.764385
H     -1.718286   -0.936486   -0.938465
H     -3.771772   -1.588254    0.054384
H     -3.995343   -0.409913   -1.281091
H     -5.703611   -2.128373    0.311265
H     -4.294581    1.450053    0.567605
H     -6.380412    0.662749    1.441634
H     -8.400639    0.310860   -1.633353
