55

C      7.120183    3.157306    0.077926
C      2.707003   -1.339188   -0.144015
C      1.744178   -2.448361   -0.509813
C      3.602886   -1.002306   -1.331366
C      0.868170   -2.780122    0.672123
C      4.543231    0.103955   -0.943954
C      0.087625   -1.576241    1.077566
C      5.423145   -0.266742    0.206920
C     -6.096997    2.315224    1.056443
C     -5.892540    2.784383   -0.389271
C     -1.818259   -2.075626   -0.425970
C     -0.809910   -1.029869   -0.005128
C     -5.794568    0.916292    0.582330
C     -5.125201    1.544666   -0.641153
C     -2.774865   -1.489423    0.583592
C      6.318999    0.893877    0.505959
C     -1.935898   -0.233302    0.572958
C     -4.488925    0.347639    0.959911
C     -3.814036    1.398362    0.071167
C     -3.911946   -0.700167    0.055119
C     -2.905963    0.349276   -0.414550
O      7.173985    0.856519    1.441088
O      6.254077    2.071635   -0.231794
H      6.487109    4.079941    0.022552
H      7.945876    3.253003   -0.640619
H      7.481649    3.069947    1.131696
H      3.354222   -1.720561    0.664332
H      2.154255   -0.424315    0.138822
H      1.049978   -2.030466   -1.296795
H      2.258457   -3.345120   -0.875479
H      4.158172   -1.884691   -1.680639
H      2.933241   -0.610277   -2.117964
H      1.554218   -3.021084    1.537882
H      0.268665   -3.659774    0.402502
H      3.911484    0.966297   -0.625676
H      5.158041    0.381760   -1.837228
H     -0.616974   -1.865891    1.912270
H      0.757807   -0.830632    1.530361
H      5.989557   -1.190344    0.025006
H      4.795593   -0.381614    1.124770
H     -7.139798    2.389318    1.412389
H     -5.364902    2.738271    1.773475
H     -6.876473    2.758040   -0.894621
H     -5.361707    3.752758   -0.477755
H     -2.156355   -1.914040   -1.483942
H     -1.593815   -3.118031   -0.184050
H     -0.274321   -0.540230   -0.845037
H     -6.634565    0.264542    0.378206
H     -5.266754    1.010830   -1.572203
H     -2.875950   -2.001533    1.530478
H     -1.787192    0.279116    1.511539
H     -4.175026    0.355977    1.997210
H     -3.423687    2.264962    0.591184
H     -4.549518   -1.123212   -0.710289
H     -2.635660    0.299269   -1.464870
