64

C     -4.007420    1.386971    2.929824
C     -3.088141   -0.838435    2.585277
C      2.171568    0.013677    2.172346
C      3.610723    1.963088    1.588690
C     -5.871078   -0.035420   -2.857826
C      5.972090   -1.342268   -3.050249
C     -5.912558    0.154710   -0.432631
C      6.121660   -0.545565   -0.757066
C     -5.116479   -0.107190    0.829198
C      5.457085    0.339767    0.257773
C     -3.749916   -0.157758   -1.672884
C      3.904233   -0.808696   -1.889135
C     -3.095007    0.565733    2.010984
C      3.533173    0.440835    1.713215
C     -5.191665   -0.514290   -1.568050
C      5.329888   -0.398264   -2.040560
C     -3.756937    0.541451    0.662900
C      4.061282   -0.247623    0.507939
C     -3.004219   -0.257424   -0.358629
C      3.213030   -0.105618   -0.727018
C     -0.544114   -0.435951   -0.424029
C      0.791286    0.090055   -0.669578
O     -0.642772   -1.622789   -0.018766
O      0.882672    1.275146   -1.074097
O     -1.702654    0.267205   -0.602000
O      1.948207   -0.616033   -0.490307
H     -4.620143    2.099397    2.368187
H     -3.406810    1.960150    3.675133
H     -4.680371    0.736083    3.504381
H     -2.634541   -0.779802    3.596770
H     -2.511689   -1.550576    1.997017
H     -4.110935   -1.213795    2.705442
H      1.822456   -0.948418    1.799897
H      1.433015    0.843755    2.008048
H      2.159930   -0.106097    3.305943
H      3.193842    2.376134    2.551676
H      4.666107    2.237309    1.575424
H      3.026703    2.303599    0.717660
H     -5.590369    1.055908   -2.932048
H     -5.488245   -0.546843   -3.741996
H     -6.968125   -0.054682   -2.744820
H      5.341737   -1.370282   -3.937971
H      5.919761   -2.362185   -2.568298
H      7.025842   -1.096659   -3.230985
H     -6.917565   -0.344306   -0.350860
H     -6.081488    1.214291   -0.622099
H      6.038623   -1.604718   -0.449236
H      7.159708   -0.253600   -0.981492
H     -5.637243    0.208149    1.744395
H     -4.920020   -1.219971    0.832598
H      5.954719    0.373478    1.227124
H      5.281903    1.352831   -0.157567
H     -3.563295    0.841173   -2.129551
H     -3.268835   -0.890390   -2.366934
H      3.889806   -1.919584   -1.749377
H      3.369296   -0.501123   -2.811877
H     -2.091464    0.987444    1.974908
H      4.245399    0.210375    2.563397
H     -5.324988   -1.614727   -1.561332
H      5.428812    0.624463   -2.474408
H     -3.863752    1.608166    0.331673
H      4.230839   -1.308854    0.753608
H     -2.968169   -1.303712   -0.007653
H      3.145608    0.952309   -1.040096
