64

C     -4.491711   -0.318521   -2.937669
C     -3.879268   -2.061497   -1.356433
C      5.701278   -0.194705   -2.215853
C      4.577462    1.840917   -1.476063
C     -4.355560    3.059353    0.850005
C      3.210086   -2.184120    2.495160
C     -5.903632    1.222488    0.381140
C      5.222822   -1.721630    1.109390
C     -5.382287   -0.027287   -0.311491
C      4.455393   -1.729988   -0.179734
C     -3.816395    0.847002    1.721650
C      3.842776    0.168239    1.877092
C     -3.538673   -0.650128   -1.779531
C      5.052171    0.479290   -1.003552
C     -4.934777    1.762620    1.372993
C      4.307664   -1.222852    2.194964
C     -3.937963    0.276232   -0.652748
C      3.904954   -0.385552   -0.547286
C     -3.128527    0.159492    0.579826
C      3.127722    0.274394    0.552864
C     -0.678108   -0.036191    0.623083
C      0.669666    0.533107    0.496670
O     -0.829129   -1.255216    0.892873
O      0.840143    1.748508    0.227436
O     -1.825505    0.714766    0.457138
O      1.811061   -0.233443    0.666072
H     -5.322966   -1.046861   -3.006272
H     -4.953567    0.682269   -2.807705
H     -3.920326   -0.255452   -3.897699
H     -3.803077   -2.732390   -2.250906
H     -4.971405   -2.107995   -1.080766
H     -3.267682   -2.436128   -0.517368
H      5.000520   -0.827991   -2.760556
H      6.078205    0.578278   -2.919784
H      6.606258   -0.765282   -1.883749
H      4.514121    2.579349   -0.665215
H      5.340620    2.212170   -2.196361
H      3.630282    1.738653   -2.057345
H     -3.272212    2.996420    0.611934
H     -4.888642    3.318791   -0.080009
H     -4.564964    3.896699    1.557148
H      2.816996   -1.983761    3.512372
H      2.384367   -2.201393    1.785919
H      3.663981   -3.214675    2.479465
H     -6.177317    1.937107   -0.416031
H     -6.822807    0.898653    0.908035
H      5.527332   -2.759659    1.336973
H      6.126202   -1.110278    1.052212
H     -6.013271   -0.219512   -1.177069
H     -5.391287   -0.849414    0.450101
H      3.663987   -2.497327   -0.132131
H      5.160472   -2.033016   -0.988009
H     -3.076091    1.447709    2.310118
H     -4.237764    0.097392    2.452653
H      3.253455    0.624755    2.676385
H      4.771071    0.796637    1.776596
H     -2.490484   -0.578478   -2.068858
H      5.810044    0.649419   -0.212530
H     -5.511179    1.979048    2.313832
H      4.937911   -1.137784    3.119806
H     -3.904927    1.342699   -0.977576
H      3.233907   -0.523114   -1.414820
H     -3.061440   -0.938530    0.822095
H      3.110013    1.377714    0.307122
