23

C     -1.881491    0.527645    0.231585
C     -0.920794    1.712118    0.250572
C      2.211360   -0.193575   -0.273332
C      0.807870    0.265877   -0.602803
C     -1.053456   -0.674388    0.693135
C     -0.094784   -0.960343   -0.464297
N      0.450252    1.300295    0.331482
O      3.122373    0.859552   -0.374489
O     -1.894053   -1.745543    0.877260
O     -0.913802   -1.076663   -1.606083
H     -2.153183    0.326917   -0.837207
H     -2.745256    0.665267    0.877769
H     -1.161163    2.288530    1.155645
H     -1.118182    2.331049   -0.641505
H      2.292448   -0.626303    0.740844
H      2.565487   -0.972508   -1.006753
H      0.789220    0.618820   -1.635049
H     -0.466056   -0.409088    1.589401
H      0.474084   -1.878225   -0.271791
H      0.813719    1.165613    1.280436
H      4.039633    0.529816   -0.425767
H     -1.960384   -2.030621    1.823487
H     -1.203843   -2.024239   -1.712539
