34

C     -0.455657   -2.359636    0.912529
C      4.842220   -0.169962   -0.361937
C     -1.031854    1.221271    1.385355
C     -0.323431    2.080741   -0.859726
C     -3.148327   -0.357400   -0.099652
C     -2.372885   -1.617821   -0.398850
C      2.271515   -0.236454   -0.364050
C      1.115616   -0.206792    0.278107
C     -2.409124    0.856425   -0.596919
C     -0.974733   -1.477517    0.093581
C      3.547324   -0.137412    0.350059
C     -0.196367   -0.301567   -0.379812
C     -0.995071    0.938166   -0.086879
O      3.542284   -0.022400    1.593221
H      0.577592   -2.225169    1.255474
H     -1.033229   -3.209486    1.248325
H      5.638532    0.378010    0.185152
H      4.688735    0.376199   -1.337531
H      5.174241   -1.221359   -0.579741
H     -2.027546    1.601637    1.705598
H     -0.870574    0.269746    1.966480
H     -0.253514    1.969226    1.683084
H     -0.692034    1.979774   -1.905938
H      0.758032    1.874309   -0.892057
H     -0.578993    3.062353   -0.449923
H     -3.379012   -0.249676    0.988436
H     -4.099372   -0.420285   -0.669088
H     -2.896659   -2.477222    0.066293
H     -2.355428   -1.725847   -1.505061
H      2.275798   -0.336099   -1.441088
H      1.153601   -0.106114    1.354542
H     -2.461442    0.901033   -1.698774
H     -2.947829    1.746050   -0.203072
H     -0.082411   -0.396723   -1.476771
