23

C     -1.811081   -0.555949    0.062746
C     -0.953880   -1.264715   -0.993061
C      2.100863   -0.214754   -0.552420
C      0.718234    0.441991   -0.644764
C     -0.852984   -0.245874    1.194071
C      0.175596    0.700636    0.702022
N     -0.068404   -0.301096   -1.540106
O      2.901981    0.502704    0.329759
O     -1.533209    0.347354    2.260165
O     -0.359030    2.003353    0.804643
H     -2.170313    0.393148   -0.381222
H     -2.614557   -1.232672    0.378276
H     -0.418641   -2.103555   -0.494804
H     -1.647741   -1.613681   -1.768823
H      2.028320   -1.276795   -0.262085
H      2.595311   -0.204012   -1.562045
H      0.922893    1.446326   -1.124093
H     -0.423181   -1.206903    1.552540
H      1.024779    0.693754    1.447398
H     -0.411371    0.194488   -2.379208
H      3.189188   -0.118354    1.040280
H     -1.737964    1.289162    2.013873
H     -0.654810    2.325444   -0.083143
