50

C     -2.440107   -2.215418    1.953049
C      3.695301   -3.682274    1.392316
C     -1.807762   -0.898699    1.672134
C      1.800998    4.245637   -0.149842
C      3.101856    3.922258    0.177981
C      0.839286    3.282346   -0.379642
C      3.420230    2.564935    0.273482
C      0.280702    0.645164   -2.063858
C     -1.029709    1.374596   -2.208133
C     -0.604724   -1.809845   -0.193746
C     -3.039230    1.501983   -0.871549
C      0.797888   -1.591703    0.117953
C      1.194131    1.931484   -0.277113
C      2.482038    1.588800    0.051433
C     -3.615690    0.131655   -0.999995
C      1.308471   -0.373394   -0.052078
C     -2.830132   -0.920216   -0.531681
C      1.634079   -2.681816    0.606682
C     -0.948838    0.673444    0.007371
C     -1.539145   -0.675211    0.187389
C      0.451195    0.676286   -0.540707
N      2.604100    0.181642    0.193468
N     -1.622243    1.532077   -0.918932
O      1.092711   -3.825563    0.749910
O      2.976460   -2.554830    0.924829
O     -4.033523   -0.453272    0.174902
H     -3.297600   -2.092194    2.665329
H     -1.731058   -2.899785    2.474680
H     -2.827643   -2.740939    1.064505
H      4.126604   -4.279362    0.557943
H      4.454742   -3.375678    2.140291
H      2.964735   -4.332148    1.935589
H     -0.809455   -0.862878    2.173945
H     -2.423623   -0.089738    2.102402
H      1.546891    5.303164   -0.224237
H      3.838606    4.672246    0.352511
H     -0.158336    3.546961   -0.630065
H      4.427013    2.280002    0.527560
H      0.296086   -0.357129   -2.485509
H      1.119875    1.240662   -2.538427
H     -0.806364    2.380482   -2.615643
H     -1.694818    0.868552   -2.941947
H     -0.915604   -2.757049    0.353872
H     -0.700264   -2.090677   -1.258733
H     -3.422465    2.156984   -1.686002
H     -3.374254    2.012491    0.078113
H     -4.303011   -0.035904   -1.867686
H     -3.059390   -1.974818   -0.872208
H     -0.898546    1.217790    0.964872
H      3.479536   -0.361100    0.433223
