51

C      4.019773    0.524688    2.447874
C     -1.942367    1.620016   -2.161300
C     -3.582577    1.670594   -0.384834
C      2.919026    1.062913   -0.572209
C      1.482161    0.663850   -0.916761
C     -2.155469   -1.675205   -1.129385
C     -3.003981   -0.475407   -1.337790
C      3.029137   -1.347921   -0.500770
C     -0.959377   -0.999619    1.484092
C      3.459589   -0.205646    1.497173
C      3.693578   -0.086765    0.012162
C      0.966051   -0.121498    0.266626
C     -0.700434   -1.370249   -0.981698
C     -1.359838    0.809121    0.087581
C      2.485414   -1.293394    1.714305
C     -1.932786    0.910334    1.510168
C      1.095399   -2.611192    0.149823
C     -2.423904    0.824388   -0.941444
C      1.782471   -1.354165    0.398317
C     -0.523488   -0.410489    0.162716
O      2.351358   -1.942114    2.758591
O     -1.916462    2.196585    1.986673
O      1.524323   -3.659325    0.677653
O     -1.028988    0.166292    2.286264
O     -0.032117   -2.580669   -0.683638
H      3.805395    0.383273    3.479876
H      4.718499    1.289914    2.160536
H     -1.219661    2.370746   -1.760431
H     -1.428319    1.000436   -2.890987
H     -2.774000    2.222550   -2.597324
H     -4.276486    1.051629    0.216052
H     -3.236157    2.580810    0.097172
H     -4.191331    2.000697   -1.277456
H      3.405191    1.312658   -1.551879
H      2.910353    1.962275    0.073897
H      0.958778    1.618578   -1.092144
H      1.427635    0.107596   -1.871354
H     -2.241550   -2.378920   -2.011769
H     -2.548979   -2.301390   -0.274291
H     -3.265439   -0.418395   -2.429339
H     -3.998780   -0.670305   -0.836749
H      2.804164   -1.354329   -1.557424
H      3.636842   -2.211111   -0.158334
H     -0.254387   -1.658891    1.966744
H     -2.000880   -1.376188    1.454970
H      4.771016   -0.053638   -0.216800
H      1.064307    0.566944    1.146263
H     -0.346352   -0.892911   -1.891452
H     -0.755124    1.733055   -0.021747
H     -2.909138    0.443023    1.600960
H     -1.302089    2.356771    2.730843
