51

C      4.481682    1.268008   -1.806483
C     -3.790074   -0.573853   -0.080402
C     -3.396212    1.510350    1.102891
C      2.578175    1.687415    0.792566
C      1.167362    1.347476    0.507269
C     -1.715834   -1.825531    1.500243
C     -2.411671   -0.546218    1.923346
C      2.967698   -0.701499    0.869771
C     -0.697675   -1.281553   -1.429603
C      3.746000    0.478048   -1.013515
C      3.582974    0.637042    0.455126
C      0.953589    0.160893   -0.373402
C     -0.348674   -1.378303    0.987066
C     -1.527877    0.519132   -0.173495
C      2.960262   -0.690312   -1.423095
C     -1.899849    0.593732   -1.661654
C      1.480079   -2.271288   -0.261681
C     -2.718697    0.213371    0.649612
C      1.998108   -0.894268   -0.280021
C     -0.430585   -0.463344   -0.171655
O      3.089871   -1.332013   -2.474214
O     -1.052579    1.410080   -2.370005
O      1.970718   -3.157892   -0.997539
O     -1.753194   -0.703111   -2.082481
O      0.421503   -2.528010    0.614435
H      5.007814    2.087723   -1.387531
H      4.561466    1.102960   -2.862921
H     -3.412620   -1.443479   -0.613015
H     -4.419805    0.077048   -0.731632
H     -4.471169   -0.973487    0.727542
H     -4.157331    1.277589    1.857045
H     -2.630101    2.149660    1.631362
H     -3.756804    2.065285    0.231881
H      2.672694    1.902804    1.885536
H      2.916920    2.637862    0.286635
H      0.564094    1.187379    1.441716
H      0.706844    2.263125    0.027855
H     -2.273706   -2.412187    0.774315
H     -1.512176   -2.387218    2.451434
H     -1.654759    0.069987    2.477363
H     -3.329515   -0.720216    2.478225
H      2.508054   -0.674540    1.849456
H      3.749728   -1.469169    0.766888
H     -0.971190   -2.333343   -1.175109
H      0.159633   -1.318892   -2.111184
H      4.529868    0.833536    0.978259
H      0.910748    0.558981   -1.432637
H      0.117135   -0.833665    1.836763
H     -1.206668    1.572532    0.078038
H     -2.929178    0.965079   -1.803413
H     -1.335077    2.336295   -2.465950
