49

C      0.857679    5.039513    1.133864
C     -5.179206   -3.230335   -1.292236
C      5.481624   -2.230139    0.175956
C     -0.132594    4.263099    1.696138
C      1.340148    4.650521   -0.097501
C     -4.803170   -3.401300    0.023100
C     -4.750099   -2.135896   -1.994623
C      5.175660   -1.476576   -0.923367
C      4.680058   -2.157426    1.310069
C     -0.626670    3.143045    1.062419
C      0.843167    3.529457   -0.727992
C     -3.982966   -2.456952    0.641370
C     -3.941316   -1.219039   -1.360691
C      4.065162   -0.641418   -0.902563
C      3.572817   -1.316787    1.314065
C     -0.736281    1.561920   -0.819121
C     -2.649938   -0.324160    0.610577
C      2.084741    0.323000    0.242874
C     -0.143500    2.740234   -0.187277
C     -3.539104   -1.350569   -0.041733
C      3.280078   -0.567436    0.202395
C     -0.361264    0.252216   -0.253296
C     -1.224123   -0.573262    0.378336
C      0.922480   -0.474745   -0.248121
C     -0.552929   -1.782516    0.821242
O     -1.003472   -2.784826    1.439371
O      0.754138   -1.682555    0.445018
H      1.230233    5.918580    1.654767
H     -5.816926   -3.949878   -1.798067
H      6.344537   -2.892973    0.189086
H     -0.531838    4.554725    2.677328
H      2.109064    5.247474   -0.541465
H     -5.142830   -4.266914    0.577886
H     -5.027865   -1.976823   -3.022071
H      5.793113   -1.531521   -1.799209
H      4.931216   -2.752331    2.162492
H     -1.390711    2.554908    1.509900
H      1.237051    3.229069   -1.711836
H     -3.722787   -2.633902    1.661766
H     -3.585644   -0.344893   -1.886517
H      3.865215   -0.069052   -1.789659
H      2.963535   -1.284460    2.224561
H     -1.833095    1.676322   -1.010504
H     -0.331248    1.518398   -1.895045
H     -2.942000    0.637631    0.218228
H     -2.839160   -0.428522    1.708630
H      1.896164    0.718521    1.239794
H      2.237756    1.142502   -0.511668
H      1.125097   -0.763932   -1.331888
