48

C     -5.915212   -1.092638   -1.089567
C     -5.745754    0.775407    0.679774
C     -3.395146    2.068233   -1.600325
C     -3.905114   -0.768469    0.233780
C     -3.017007   -0.148463    1.241186
C      6.948706   -0.876922    0.288694
C      5.950388   -1.668222   -0.220122
C     -0.588518   -0.489574    0.941652
C      0.766044    1.028314   -0.323734
C      5.271082    0.470854    1.333569
C      2.147940   -1.695068   -0.552131
C     -5.121382   -0.362062   -0.030322
C     -1.708389    0.282196    0.671519
C      0.636749   -0.117590    0.447146
C      6.615855    0.199571    1.070135
C      4.604441   -1.404561    0.037947
C      3.532480   -2.225499   -0.488442
C     -0.333347    1.796624   -0.596143
C      1.872426   -0.921011    0.714075
C      4.273167   -0.332209    0.816346
C     -1.568618    1.409444   -0.090101
O      7.586904    1.050868    1.622965
O      3.765201   -3.381354   -0.891070
O     -0.217401    2.953336   -1.371314
O     -2.639387    2.239455   -0.411729
O      2.925265   -0.078471    1.067517
H     -6.503087   -0.346587   -1.666856
H     -5.237051   -1.698364   -1.719948
H     -6.636753   -1.782344   -0.568652
H     -6.663359    1.097993    0.143431
H     -6.056235    0.465916    1.712191
H     -5.050886    1.628951    0.735418
H     -3.269525    1.023017   -1.934921
H     -4.439621    2.341413   -1.454310
H     -2.986515    2.751855   -2.381916
H     -3.488805   -1.619557   -0.308319
H     -2.823107   -0.902721    2.050058
H     -3.502320    0.756906    1.689672
H      7.983053   -1.074052    0.094049
H      6.151902   -2.523477   -0.837614
H     -0.695347   -1.382376    1.543495
H      1.741755    1.303935   -0.703869
H      5.036869    1.327944    1.954265
H      2.059594   -1.004210   -1.412202
H      1.395132   -2.513092   -0.622695
H      1.662234   -1.657410    1.527194
H      7.902248    1.866983    1.110453
H      0.678456    3.227091   -1.733986
