45

C      3.495202    2.228419    0.696068
C     -2.210979   -0.078704   -0.268253
C     -0.907972   -0.862968   -0.482035
C     -2.959303    0.087644   -1.550981
C     -0.266274   -0.955046    0.868247
C     -4.214708    0.872504   -1.313547
C      1.012913   -1.732820    0.784975
C     -5.117653    0.182602   -0.339655
C      3.224385   -1.854840   -0.176175
C      4.202593   -1.135387    0.755236
C      3.324131    0.952817   -0.139723
C      1.950974   -1.022077   -0.157153
C      4.579948    0.147517    0.044083
C     -6.362962    0.986749   -0.145731
N      2.138573    0.306392    0.323507
O      5.573553    0.842455    0.727384
O     -6.502281    2.057000   -0.765727
O     -7.348739    0.546407    0.712712
H      4.572638    2.490912    0.793278
H      3.150105    2.004731    1.732129
H      2.968807    3.080611    0.247007
H     -2.018569    0.873088    0.220402
H     -2.854137   -0.691326    0.426442
H     -0.289203   -0.308718   -1.228642
H     -1.190815   -1.834890   -0.906989
H     -2.314759    0.606744   -2.305865
H     -3.218240   -0.930371   -1.927026
H     -0.025475    0.096444    1.209008
H     -0.960423   -1.353556    1.640806
H     -4.738596    1.033706   -2.287386
H     -3.986334    1.884648   -0.902561
H      1.476422   -1.811529    1.806689
H      0.806593   -2.780943    0.446081
H     -4.649827    0.102134    0.674629
H     -5.405785   -0.807897   -0.730355
H      3.064003   -2.895528    0.105597
H      3.656341   -1.773040   -1.195048
H      5.080820   -1.768472    0.982100
H      3.610071   -0.888096    1.666955
H      3.184392    1.299517   -1.193587
H      1.500730   -1.073947   -1.188134
H      4.952513   -0.109947   -0.987086
H      1.988476    0.386500    1.353674
H      6.218127    0.157484    1.065526
H     -8.189277    1.105766    0.909123
