42

C      4.176742    0.275632    0.058718
C      2.918837   -1.003120   -1.592591
C     -0.436461    2.767774    0.437226
C     -1.770829   -1.337196   -0.866612
C     -3.430961    1.047992   -0.038813
C     -2.299484    1.769164   -0.705032
C      0.319351   -1.653100    0.937110
C     -3.048436   -0.080723    0.878447
C     -1.146073   -1.688624    1.427522
C      2.935953   -0.588766   -0.151298
C     -1.088163    1.663361    0.143791
C      0.444857   -0.388961    0.078232
C     -0.674143    0.392197    0.638802
C      1.751938    0.279647    0.218002
C     -1.772370   -0.697136    0.468917
O      1.776201    1.318170   -0.754881
H      3.994165    0.942407    0.918605
H      5.046260   -0.368025    0.352831
H      4.395987    0.892932   -0.823278
H      2.006058   -0.680912   -2.130049
H      2.976202   -2.117162   -1.641171
H      3.806127   -0.630791   -2.164013
H     -0.723185    3.765373    0.097498
H      0.434900    2.717323    1.067496
H     -1.070779   -2.226918   -0.899316
H     -1.547161   -0.735581   -1.735371
H     -2.792243   -1.804499   -1.000438
H     -4.007463    1.786196    0.567802
H     -4.089484    0.679672   -0.863424
H     -2.639287    2.846530   -0.782710
H     -2.134091    1.493705   -1.768347
H      0.939255   -1.633092    1.827630
H      0.496702   -2.560650    0.360220
H     -3.852149   -0.866703    0.751905
H     -3.053772    0.310023    1.917080
H     -1.205076   -1.275503    2.436516
H     -1.571490   -2.701818    1.315548
H      3.055361   -1.451460    0.541439
H      0.283111   -0.714289   -0.967336
H     -0.525116    0.436523    1.764185
H      1.934193    0.735261    1.178983
H      1.186017    1.085149   -1.499822
