28

C      4.044254    0.627015    0.767009
C      2.939466   -0.415576    0.541378
C      2.674036   -0.620213   -0.883731
C      1.500941   -0.390118   -1.421696
C      0.340002    0.093380   -0.661450
C     -0.745510   -0.935914   -0.783903
C     -2.669915    0.657117   -0.503098
C     -3.723270    0.812895    0.580836
C     -2.001927   -0.601365   -0.067283
C     -3.025589    0.202887    1.745278
O     -3.400938    0.201143    2.963907
O     -1.839218   -0.403729    1.316841
H      4.590249    0.854230   -0.148428
H      3.530674    1.566046    1.112742
H      4.729314    0.340328    1.562935
H      2.091191   -0.299598    1.201308
H      3.434870   -1.380219    0.894074
H      3.501490   -0.986300   -1.535506
H      1.376066   -0.563944   -2.481700
H      0.505202    0.473105    0.332002
H     -0.046993    0.987590   -1.254310
H     -0.976293   -1.070294   -1.856207
H     -0.367011   -1.901708   -0.393943
H     -3.144635    0.596488   -1.499018
H     -2.016437    1.549696   -0.428093
H     -3.990997    1.868897    0.753036
H     -4.589051    0.172029    0.339643
H     -2.719970   -1.433868   -0.192624
