43

C      3.010852    0.804233    1.115120
C      3.571147   -1.046611   -1.123218
C      2.948020    1.108235   -1.641715
C     -1.657243   -3.712589    1.115222
C     -3.927661    2.674217    0.228319
C     -0.980501   -2.864824    1.953887
C     -1.939877   -3.294202   -0.159793
C     -3.233652    2.205917    1.306955
C     -3.510700    2.327988   -1.036223
C     -0.594354   -1.605146    1.503229
C     -1.552292   -2.036381   -0.606057
C     -2.127763    1.394372    1.121827
C     -2.393245    1.508064   -1.222490
C      0.672856    0.770344    0.428601
C     -0.191389    0.104317   -1.718355
C      1.979234    0.078227    0.296603
C     -0.863183   -1.166946    0.239630
C     -1.689124    1.032725   -0.136725
C     -0.478316    0.149753   -0.297612
N      0.042530    0.087710   -2.855654
N      2.420208   -0.141872   -1.068827
H      3.006756    0.452960    2.185703
H      2.755574    1.899537    1.216168
H      4.035051    0.741509    0.777197
H      3.835561   -1.086299   -2.220288
H      4.415525   -0.719920   -0.517406
H      3.291904   -2.081047   -0.845490
H      3.870830    0.968262   -2.206165
H      3.192313    1.757072   -0.752194
H      2.176087    1.683686   -2.183753
H     -1.973330   -4.719476    1.451200
H     -4.809004    3.319455    0.368335
H     -0.754436   -3.180126    2.950204
H     -2.475564   -3.982373   -0.799627
H     -3.549410    2.470465    2.328941
H     -4.075904    2.710564   -1.872070
H     -0.055132   -0.922152    2.171616
H     -1.806604   -1.771734   -1.622675
H     -1.594142    1.033434    2.005988
H     -2.077178    1.246890   -2.203459
H      0.456915    0.905384    1.505345
H      0.749603    1.834990    0.040825
H      1.879036   -0.938612    0.778879
