55

C      6.444070    0.344117   -0.252843
C      5.743123    0.881244    0.966914
C     -5.836228    0.592394   -1.187559
C     -4.891267   -0.578371   -1.145492
C     -5.169314    1.871205   -0.804552
C      5.557823    0.171821   -1.439136
C      4.838657   -0.139766    1.569263
C     -3.443983   -0.169511   -1.315063
C     -4.140867    1.589751    0.247050
C     -2.824232   -2.026597    1.340867
C      4.099180    0.441752   -1.162242
C      4.358504   -1.182508    0.588822
C      2.231782   -0.156584    0.157172
C      1.237609    0.098794   -0.946096
C     -3.442127   -2.944228    2.195091
C     -3.318415   -0.339074    2.909589
C     -2.965629    0.803559   -0.307348
C     -2.745654   -0.749146    1.656453
C     -2.106251    0.295106    0.791503
C     -0.796186   -0.213237    0.334869
N      3.478023   -0.627355   -0.414189
O     -0.403829   -1.339375    0.707512
O     -0.009368    0.559896   -0.503459
S     -3.966450   -1.862819    3.600265
H      7.296467    1.049975   -0.457853
H      6.944287   -0.609715    0.069731
H      5.250095    1.860817    0.769711
H      6.560741    1.126839    1.707331
H     -6.640995    0.388551   -0.421365
H     -6.376477    0.658292   -2.166601
H     -5.067603   -1.221045   -0.264768
H     -5.129354   -1.224470   -2.033770
H     -5.942400    2.531648   -0.329433
H     -4.771355    2.452830   -1.659735
H      5.622755   -0.830780   -1.900655
H      5.871539    0.895550   -2.236364
H      5.384234   -0.678308    2.375273
H      3.935841    0.304715    2.035576
H     -2.830017   -1.054619   -1.464429
H     -3.424048    0.359312   -2.324913
H     -4.624383    1.004242    1.046411
H     -3.790416    2.537032    0.717600
H     -2.393977   -2.470146    0.358027
H      3.901462    1.403151   -0.691065
H      3.595934    0.462319   -2.168611
H      5.155551   -1.744279    0.103902
H      3.749448   -1.911123    1.179895
H      2.431613    0.830924    0.651107
H      1.824166   -0.832285    0.910906
H      1.656658    0.838070   -1.667322
H      1.053866   -0.884511   -1.444571
H     -3.608402   -3.969887    2.140494
H     -3.354633    0.614717    3.327914
H     -2.343123    1.586553   -0.841986
H     -1.866445    1.204562    1.426269
