36

C      1.073432    2.047638   -0.626735
C      0.078680    2.156466    0.465748
C      2.220716   -1.062918   -0.845480
C      1.256047   -2.198137   -0.474605
C     -2.473055   -0.174459    0.007906
C     -2.155010   -1.365108    0.844620
C      2.356554    1.375103   -0.251919
C     -1.365121    2.080509   -0.019448
C      2.233959   -0.003494    0.260616
C     -2.180609    1.096700    0.761458
C     -0.152148   -1.678806   -0.639159
C     -1.136180   -2.288758    0.290059
Br     3.337459    2.461891    1.018054
Br    -1.464270    1.775913   -1.919312
Br     3.843981   -0.375381    1.309276
Br    -3.805886    1.906740    1.449347
Br    -0.695704   -2.056772   -2.460079
Br    -0.171116   -3.123994    1.769794
H      0.643031    1.494599   -1.485726
H      1.321850    3.064009   -0.993613
H      0.169823    1.385831    1.259142
H      0.267385    3.135466    0.997996
H      1.836098   -0.599705   -1.758710
H      3.238918   -1.464684   -1.025763
H      1.506357   -2.489800    0.544005
H      1.489299   -3.043984   -1.139221
H     -2.035961   -0.193974   -1.008273
H     -3.590862   -0.181902   -0.161103
H     -3.068729   -1.981641    1.093443
H     -1.786322   -1.025467    1.857003
H      2.987414    1.348207   -1.181253
H     -1.825287    3.096659    0.160323
H      1.383747   -0.215262    0.906757
H     -1.571361    0.831643    1.675051
H     -0.118167   -0.591823   -0.438298
H     -1.648960   -3.141306   -0.241902
