22

C      3.022734    0.381798   -0.548850
C     -2.849684   -0.413025   -0.003735
C      1.587627    0.455904   -0.016748
C      0.904497   -0.777745   -0.497073
C     -0.507372   -0.961747   -0.112484
C     -1.287871    1.419324   -0.000338
C     -1.487766    0.060428   -0.545311
O     -1.316723    1.684008    1.190470
H      3.319354   -0.680874   -0.621241
H      2.990727    0.848193   -1.561440
H      3.715764    0.962051    0.083345
H     -2.691238   -0.622564    1.072336
H     -3.562653    0.392597   -0.179192
H     -3.073458   -1.354835   -0.519715
H      1.118056    1.409905   -0.325791
H      1.689830    0.499304    1.086304
H      1.482664   -1.641877   -0.053256
H      1.022268   -0.928555   -1.599899
H     -0.554899   -1.141425    0.987272
H     -0.850455   -1.937950   -0.561283
H     -1.102854    2.250057   -0.672394
H     -1.568547    0.097030   -1.628894
