90

C     -4.431720    1.659951   -2.143270
C     -0.628189    0.988620   -4.103665
C      5.950365   -0.852917   -0.239734
C      6.639456    1.214105    1.001975
C      5.433644    1.398335   -1.141425
C     -3.536308   -4.164126    0.191954
C     -2.095966   -2.805332    2.411573
C     -4.862947   -1.981883    1.714474
C      3.569518    2.278005    1.610169
C      4.215596   -0.543789    2.602306
C     -1.831419    3.127628    4.180867
C     -2.094497    1.774815    4.034180
C     -2.154027    3.984159    3.153644
C      1.561988   -1.962426   -3.543125
C      1.248662   -0.520526   -3.808870
C     -2.672773    1.290504    2.873269
C     -2.727629    3.469906    2.013464
C      0.918186   -2.520923   -2.554911
C     -2.954684   -0.298058   -2.311721
C     -3.591207    1.705314    0.619890
C      0.577260   -1.732666   -0.316465
C     -0.931964    0.072604    0.632661
C      1.515910    0.300844    0.793574
C     -3.968963    0.411156   -1.438068
C     -0.250091   -0.314239   -3.523794
C     -2.998742    2.117023    1.848160
C     -0.087747   -1.877985   -1.670044
C     -3.236571    0.744597   -0.146548
C     -1.712422    0.043205   -1.611652
C      5.592341    0.579474    0.113046
C      0.391142   -0.279383   -0.044224
C     -2.123713   -0.273439   -0.150427
C     -0.441402   -0.491117   -2.049717
O      2.705526   -0.089170    0.180256
O      0.528613    0.258801   -1.319523
O     -2.598881   -1.517203   -0.164499
Si    -3.221237   -2.444727    0.973396
Si     3.991441    0.544886    1.099190
H     -3.945235    2.547752   -1.685855
H     -5.549692    1.731610   -2.094652
H     -4.179010    1.664991   -3.215260
H     -1.135954    0.782742   -5.092719
H      0.269233    1.608481   -4.402831
H     -1.266496    1.648575   -3.528949
H      6.429449   -0.877738   -1.239316
H      5.000474   -1.435732   -0.338991
H      6.597048   -1.259017    0.566841
H      6.524718    0.795918    2.042587
H      6.372871    2.290007    1.089783
H      7.661337    1.073446    0.644545
H      6.449678    1.820325   -1.371652
H      5.130891    0.751089   -2.013226
H      4.673235    2.171115   -1.027305
H     -3.726306   -4.895801    0.973845
H     -2.677572   -4.414535   -0.465620
H     -4.406513   -3.994295   -0.483460
H     -2.596218   -3.581546    3.097914
H     -1.154653   -3.239865    2.074556
H     -1.898213   -1.919043    3.047363
H     -5.608450   -1.681788    0.982321
H     -4.699608   -1.259817    2.540012
H     -5.253858   -2.903452    2.212199
H      2.623687    2.307275    2.179194
H      3.473079    2.896102    0.691803
H      4.393747    2.663817    2.276395
H      5.218579   -0.434076    3.015469
H      3.446042   -0.315280    3.343892
H      4.064063   -1.596293    2.281552
H     -1.376042    3.541525    5.082839
H     -1.827130    1.128020    4.863616
H     -1.955962    5.048549    3.247859
H      2.269897   -2.519281   -4.119267
H      1.483834   -0.279748   -4.850539
H      1.788148    0.067904   -3.062079
H     -2.856890    0.240659    2.811916
H     -2.965677    4.185896    1.227566
H      1.122002   -3.589002   -2.325507
H     -3.146384   -1.395075   -2.194042
H     -3.019292    0.020853   -3.367100
H     -4.473789    2.305477    0.300764
H      1.700636   -1.878150   -0.390591
H      0.258111   -2.431375    0.438781
H     -0.846321   -0.393295    1.634948
H     -0.871210    1.203940    0.671659
H      1.456537    1.404873    0.738677
H      1.469089   -0.065210    1.839749
H     -4.808967   -0.252368   -1.157533
H     -0.744848   -1.182618   -4.029511
H     -0.947159   -2.578605   -1.640170
H     -1.625485    1.178042   -1.588836
