39

C      3.603076   -1.797023    0.251434
C     -0.471389    3.099826   -0.908599
C     -1.157173   -1.429425   -1.531867
C     -1.202617   -2.332711    0.719560
C     -2.397233    0.816774    1.174911
C     -1.801574    2.088980    0.718730
C      2.750583    0.442893   -0.567195
C      1.687789    1.431472   -0.139683
C     -2.467377   -0.277918    0.159418
C      1.226328   -1.142446    0.472862
C      2.439060   -0.853709    0.081274
C     -0.666994    1.984852   -0.213589
C      0.299413    0.916373   -0.545795
C      0.032521   -0.266186    0.339246
C     -1.201516   -1.029216   -0.055824
H      3.361496   -2.595106    0.989387
H      4.407217   -1.167111    0.725226
H      3.914288   -2.235627   -0.700310
H      0.326183    3.176093   -1.634546
H     -1.093888    3.998061   -0.793652
H     -1.222292   -0.541234   -2.188523
H     -0.300089   -2.077684   -1.759888
H     -2.083696   -2.019802   -1.717691
H     -2.248519   -2.748656    0.665988
H     -0.570381   -3.075245    0.191800
H     -0.965293   -2.214595    1.776411
H     -2.002704    0.450874    2.168488
H     -3.477841    1.055144    1.427131
H     -1.431750    2.643280    1.622870
H     -2.567213    2.748744    0.267588
H      2.827632    0.359295   -1.667377
H      3.722996    0.861371   -0.223501
H      1.877956    2.423968   -0.551354
H      1.729595    1.458779    0.985501
H     -3.244807   -1.011185    0.528237
H     -2.907382    0.154645   -0.762837
H      1.069127   -2.118358    0.943423
H      0.365854    0.680949   -1.611478
H     -0.159387    0.140864    1.364224
