57

C     -3.051622    0.080483   -2.069973
C      1.260338    1.884284   -1.728378
C     -0.381774    5.175952   -0.328512
C     -1.733782   -0.552949   -1.740701
C      4.367127   -1.885112    0.031958
C      4.741404   -0.889145   -0.841478
C     -2.598016   -2.680346    0.110457
C      3.122709   -1.875098    0.658183
C      3.843548    0.127796   -1.082018
C     -2.592032   -1.230135    0.436610
C      0.643789   -1.098980    2.216446
C     -1.252572   -3.315646    0.047930
C     -0.012611   -2.450263    1.915750
C     -1.587266    0.936100    0.172478
C      2.264566   -0.850023    0.391808
C      2.590106    0.165289   -0.469874
C     -0.138160   -1.157918   -0.028657
C      0.856725    0.963621    0.724421
C     -0.515392    3.058586    0.927580
C     -1.433551   -0.468038   -0.225751
C      0.858033   -0.525594    0.880330
C     -0.465630    1.591113    0.933072
N      1.482601    1.104780   -0.551249
N     -0.219333   -2.474584    0.515005
O     -0.712084    3.747022    1.957816
O     -0.797904    1.282146    2.297232
O     -0.347152    3.769455   -0.233279
H     -2.850165    0.808071   -2.911603
H     -3.778831   -0.641322   -2.494801
H     -3.479976    0.690717   -1.260678
H      0.211003    1.922001   -2.080385
H      1.799038    1.445275   -2.634255
H      1.743060    2.907333   -1.677568
H     -1.328773    5.452088   -0.828109
H      0.477982    5.515183   -0.952357
H     -0.362870    5.655673    0.670858
H     -1.824489   -1.629199   -1.985579
H     -0.891315   -0.173638   -2.332278
H      5.013118   -2.724337    0.278849
H      5.720277   -0.961157   -1.290159
H     -3.194629   -3.204927    0.885665
H     -3.147573   -2.826220   -0.846857
H      2.825685   -2.654757    1.344056
H      4.113410    0.921131   -1.765264
H     -3.559565   -0.790388    0.137977
H     -2.491849   -1.085110    1.530189
H      0.120967   -0.548431    2.975988
H      1.677425   -1.341155    2.641351
H     -1.044020   -3.630596   -0.989948
H     -1.224852   -4.247005    0.657257
H     -0.920559   -2.592473    2.532919
H      0.669788   -3.280604    2.187176
H     -2.573405    1.119634    0.708194
H     -1.720531    1.577680   -0.738035
H      0.419771   -1.296626   -1.016455
H      1.605680    1.345038    1.482598
H     -0.195865    1.835327    2.854047
