64

C     -3.139029    2.669349   -2.565976
C     -3.511480   -1.924117    3.031305
C      5.758358   -0.626510    2.218232
C     -5.324747    2.146099    1.599660
C      2.829876    2.924655    2.725736
C     -0.061465    2.455244    0.847125
C      2.228664   -2.341175   -1.102657
C      3.388618   -1.103893    0.674650
C     -1.951744    0.659812   -1.080075
C     -2.072101   -0.828496    0.732155
C      2.485357   -1.224954   -3.290710
C     -0.802407   -1.540878   -2.927375
C      2.243017   -1.302282   -0.037928
C     -1.359043   -0.338416   -0.345251
C      1.488597   -1.872316   -2.316211
C      0.331479   -0.957306   -2.059389
C     -3.194003    1.122405   -0.731658
C     -3.314509   -0.395350    1.115472
C      3.410594   -0.141624    1.649398
C     -0.045505   -0.941750   -0.613955
C      1.083294   -0.538411    0.208607
C     -3.869713    0.606481    0.348543
C      2.309755    0.633073    1.931499
C      1.156441    0.401130    1.180990
O      3.417307   -2.227862   -3.612926
O     -1.049311   -2.871949   -2.503848
O     -3.826223    2.132202   -1.452943
O     -4.001588   -0.914907    2.208658
O      4.560397    0.091225    2.399581
O     -5.131292    1.075200    0.703608
O      2.369017    1.606149    2.937031
O      0.065555    1.197493    1.483139
H     -3.758481    3.444631   -3.072953
H     -2.202493    3.118225   -2.192479
H     -2.911995    1.856754   -3.314095
H     -2.415486   -1.870602    3.219368
H     -3.980720   -1.924181    4.038795
H     -3.688699   -2.917569    2.569759
H      5.724311   -1.659677    2.573162
H      6.539009   -0.104588    2.813560
H      6.079992   -0.527692    1.153352
H     -5.304508    1.793353    2.656056
H     -4.606514    2.961470    1.417493
H     -6.342538    2.570076    1.443073
H      2.165207    3.654310    3.226006
H      3.845384    3.088335    3.151421
H      2.899699    3.184649    1.650277
H      0.244277    2.416120   -0.224052
H      0.358396    3.295724    1.394817
H     -1.177322    2.666868    0.807160
H      3.275105   -2.549291   -1.397534
H      1.789791   -3.267915   -0.684901
H      4.300290   -1.696373    0.489319
H     -1.397876    1.075228   -1.931894
H     -1.638321   -1.629550    1.352220
H      1.983262   -0.875994   -4.197340
H      2.999642   -0.417774   -2.731852
H     -1.746949   -1.037515   -2.830579
H     -0.398925   -1.576096   -3.951047
H      1.130064   -2.778939   -2.835589
H      0.546630    0.090520   -2.402469
H     -0.155960   -2.068417   -0.381750
H      3.019585   -3.130442   -3.457454
H     -1.646022   -2.811968   -1.704336
