24

C      2.659602    1.105452   -0.193384
C      3.132636   -0.158691    0.119339
C      1.319587    1.286484   -0.447552
C      2.240498   -1.224261    0.170494
C     -1.815731    1.191979    0.103104
C     -2.182100    0.512140    1.406127
C      0.423093    0.235215   -0.399772
C      0.897181   -1.042091   -0.084432
C     -1.383157   -1.112941    0.166529
C     -1.031839    0.137826   -0.621092
N     -0.225721   -1.947927   -0.100959
O     -1.395074    0.058981   -1.942691
O     -1.396061   -0.647080    1.475475
H      3.360528    1.925266   -0.230356
H      4.156222   -0.374817    0.327952
H      1.008909    2.299454   -0.686883
H      2.597422   -2.232185    0.416489
H     -1.260691    2.115324    0.268110
H     -2.744706    1.379305   -0.484164
H     -3.236666    0.173882    1.422282
H     -1.943937    1.188853    2.254541
H     -2.324054   -1.537538   -0.172898
H     -0.169750   -2.968359   -0.271544
H     -0.686192   -0.364271   -2.494717
