36

C      6.215934   -1.006831    0.074741
C     -5.369874    0.726887   -1.228314
C     -5.495813   -0.484721   -0.611507
C     -4.201466    1.462450   -1.084246
C     -4.443482   -0.935261    0.139813
C      3.714177   -0.737698    0.273169
C     -1.793152    1.546164    0.012639
C      1.304191    0.654016    1.112696
C      4.834956   -0.730940   -0.432361
C     -3.154549    0.992610   -0.324719
C     -3.287239   -0.227231    0.293481
C     -1.019934    0.283035    0.276893
C      0.020527    0.453302    1.311921
C      2.566728   -0.412779   -0.611571
C     -2.060920   -0.538748    1.049770
C      4.524636   -0.408557   -1.807294
C     -0.683633    0.350580    2.587746
O      5.315929   -0.307659   -2.770920
O     -0.132475    0.479999    3.711504
O      1.861107    0.733485   -0.175442
O      3.148050   -0.223997   -1.874707
O     -2.045425    0.089090    2.334469
H      6.309557   -0.738763    1.131195
H      6.923260   -0.376998   -0.527044
H      6.469221   -2.085247   -0.024074
H     -6.189039    1.094086   -1.822372
H     -6.391961   -1.064725   -0.713167
H     -4.125978    2.424389   -1.585588
H     -4.583227   -1.907806    0.616563
H      3.696665   -0.954280    1.332570
H     -1.913798    2.070628    0.983633
H     -1.394544    2.164088   -0.790451
H      1.941836    0.759710    1.959551
H     -0.675504   -0.230478   -0.621169
H      1.923944   -1.316695   -0.655943
H     -1.808704   -1.595106    1.090514
