41

C      6.956192   -0.277729   -0.431195
C     -3.029774   -1.183958    1.227934
C     -2.812300   -2.754671   -0.810155
C     -3.550698    1.006936   -0.493980
C      1.522003    0.642566    1.171181
C      5.580504   -0.003506    0.043766
C      2.939273    0.425764    0.792275
C     -2.887305   -0.161653   -1.090207
C     -4.695691    1.470131   -0.988185
C     -1.502902   -0.539671   -0.786718
C      5.289538    0.674499    1.186915
C      4.526071   -0.464739   -0.721290
C      3.985930    0.891260    1.564576
C      3.211725   -0.261459   -0.366194
C     -0.698654    0.088512    0.261746
C     -2.659219   -1.389943   -0.220734
C     -5.416533    2.636679   -0.441546
Cl    -5.392344    0.644173   -2.374927
F      6.316524    1.136826    1.954095
F      4.783028   -1.150735   -1.877559
F      3.708816    1.572347    2.712801
F      2.194065   -0.740277   -1.161190
F     -4.799882    3.208125    0.629521
F     -5.689092    3.592183   -1.392728
F     -6.656495    2.162531    0.006558
O     -1.194315    0.682772    1.266256
O      0.687852    0.065676    0.209357
H      7.321383    0.630187   -0.977924
H      7.636309   -0.494920    0.430288
H      6.952582   -1.131714   -1.134712
H     -2.179815   -1.427088    1.906536
H     -3.845641   -1.901590    1.447394
H     -3.394398   -0.177073    1.425841
H     -3.000790   -2.699139   -1.914206
H     -3.629261   -3.278746   -0.277316
H     -1.898586   -3.395612   -0.638220
H     -3.162045    1.556848    0.366884
H      1.304073    1.716637    1.349014
H      1.360554    0.096370    2.141973
H     -3.266773   -0.442635   -2.103227
H     -0.913909   -1.024164   -1.603844
