62

C     -1.440942   -2.730849    0.774055
C     -3.094729   -2.131751   -0.790724
C      1.054173    2.035213    1.714351
C      2.818190    1.980805    0.184950
C     -1.834112   -4.048969    0.680743
C     -3.505572   -3.449757   -0.899543
C      1.411321    3.292559    2.127316
C      3.196288    3.244765    0.583889
C     -2.868174    4.370403    1.208654
C      3.611856   -3.587092   -2.494102
C     -3.963765    2.263062    1.338866
C      4.141405   -2.312550   -0.561164
C     -2.066779   -1.759065    0.039706
C      1.732939    1.337954    0.740546
C     -2.867235   -4.417435   -0.155046
C      2.497520    3.914368    1.558928
C     -3.910469    3.602917    1.645311
C      4.507374   -3.246592   -1.512740
C     -1.850397    3.770909    0.440374
C      2.341758   -3.006084   -2.544788
C     -2.966957    1.678773    0.587692
C      2.894210   -1.715366   -0.576963
C     -1.887491    2.425814    0.121267
C      2.023090   -2.085732   -1.579904
C     -0.868632    0.273613   -0.886989
C      0.591325   -0.097222   -0.981782
C     -0.916884    1.757356   -0.683413
C      0.708012   -1.449518   -1.571895
C     -1.655614   -0.356927    0.183446
C      1.316341   -0.020989    0.330877
O     -3.237761   -5.770435   -0.221844
O      2.860313    5.191514    1.978380
O     -4.962911    4.129438    2.415213
O      5.746117   -3.866257   -1.529900
O     -0.826067    4.568263    0.024797
O      1.479594   -3.372564   -3.543274
O     -0.013847    2.431513   -1.290499
O     -0.245748   -2.078799   -2.065809
O     -2.930921    0.346293    0.233726
O      2.513239   -0.798694    0.341640
H     -0.637620   -2.453267    1.426337
H     -3.633125   -1.393820   -1.403727
H      0.195272    1.548206    2.166465
H      3.403517    1.490625   -0.591509
H     -1.328577   -4.800876    1.267595
H     -4.311061   -3.754830   -1.547767
H      0.806749    3.753074    2.903224
H      4.057911    3.757661    0.144213
H     -2.842681    5.409937    1.456690
H      3.831925   -4.308288   -3.267529
H     -4.780131    1.656109    1.679656
H      4.842462   -2.056253    0.193691
H     -1.354739    0.071794   -1.861598
H      1.070167    0.613126   -1.686135
H     -1.234596   -0.190804    1.210940
H      0.689413   -0.487054    1.114835
H     -3.938046   -6.161809    0.391046
H      3.523883    5.317356    2.756696
H     -4.905584    4.137108    3.424114
H      6.481172   -3.709466   -0.879011
H     -0.057714    4.357518   -0.482412
H      0.591344   -3.108928   -3.780163
