24

C      0.380112    1.110232   -0.668601
C      2.533269   -0.068353   -0.519334
C      1.044324    0.037455   -0.295394
C     -1.080528    1.308776   -0.492617
C      0.351878   -1.107211    0.359425
C     -1.757548    0.011723   -0.099098
C     -0.895653   -0.583536    1.022881
O      3.204656   -0.227117    0.678453
O     -1.303763    2.237661    0.515221
O     -0.040637   -1.980980   -0.645693
O     -3.036660    0.264923    0.340589
O     -1.647547   -1.592895    1.606353
H      0.948272    1.907602   -1.140603
H      2.702805   -0.920602   -1.203020
H      2.921983    0.842535   -1.011237
H     -1.506468    1.629673   -1.469666
H      1.018651   -1.631636    1.078581
H     -1.726572   -0.708253   -0.938722
H     -0.676151    0.246710    1.707822
H      4.134373   -0.460839    0.479312
H     -0.913328    3.093645    0.250747
H      0.271652   -1.727351   -1.538284
H     -3.638909    0.251960   -0.457876
H     -1.288209   -1.934120    2.440759
