35

C     -2.506630    0.962963    1.027660
C     -3.023627   -1.320075    0.394591
C     -4.048370    0.508340   -0.802672
C      2.277376   -1.139611   -0.220149
C      2.624305    1.049755    0.548586
C      4.435406   -0.518969    0.534451
C     -0.449914   -0.382258   -1.012723
C      1.766789    0.100717    0.031638
C      3.588596   -1.473816    0.017311
C      3.963914    0.745520    0.802971
C      0.375535    0.511082   -0.199190
C     -2.705051    0.090769   -0.154614
N     -1.769463    0.063862   -1.181812
O      4.015227   -2.766816   -0.271208
O      4.857839    1.663145    1.318854
O      0.443250    1.796100   -0.790332
H     -2.092942    0.431388    1.937623
H     -3.549925    1.238960    1.401708
H     -2.038903    1.935851    0.840111
H     -2.174911   -1.713839    0.958566
H     -3.862200   -1.159150    1.124251
H     -3.340146   -1.957226   -0.433230
H     -4.899998    0.079527   -0.265806
H     -4.092366    0.133373   -1.849432
H     -4.085394    1.619059   -0.875080
H      1.619480   -1.873037   -0.618815
H      2.321128    2.064982    0.785621
H      5.463811   -0.806867    0.716430
H     -0.431165   -1.432618   -0.562838
H     -0.056282   -0.584687   -2.042309
H     -0.069951    0.666196    0.796533
H     -2.160313    0.103787   -2.123211
H      4.372508   -2.982347   -1.172410
H      4.601577    2.617364    1.549405
H      0.630810    1.728576   -1.774800
