49

C     -3.396551   -1.997898   -0.440355
C     -2.998109   -0.793033   -1.286346
C     -2.487258   -2.099311    0.773283
C     -0.784219    4.205290   -1.398324
C     -0.554430    2.828386   -1.425035
C     -0.768767    4.855228   -0.184256
C     -2.511549    0.333893   -0.407398
C     -1.126088   -1.520451    0.339110
C      3.744993   -2.106172    1.222615
C      3.344124   -1.950585   -1.064021
C      2.979199   -0.829911    1.180328
C      1.897250   -1.580380   -0.824630
C     -0.300852    2.763982    0.927991
C      1.228478    0.396040    0.357458
C     -0.315377    2.114052   -0.277181
C     -0.530647    4.144572    0.960431
C     -0.067205    0.635146   -0.292121
C     -1.261350   -0.021810    0.376629
Cl    -0.509999    4.959646    2.495267
N      3.870355   -2.795704   -0.018294
N      1.717367   -0.935323    0.461532
O     -1.432735    0.381593    1.698633
H     -3.220270   -2.896386   -1.064294
H     -4.458163   -1.969873   -0.177917
H     -2.273390   -1.104927   -2.047009
H     -3.908620   -0.453020   -1.791475
H     -2.368471   -3.123854    1.142970
H     -2.867139   -1.443744    1.558835
H     -0.974215    4.783740   -2.291301
H     -0.574462    2.359352   -2.389266
H     -0.950487    5.941833   -0.164928
H     -2.378230    1.214214   -1.053216
H     -3.319375    0.566415    0.297963
H     -0.959870   -1.885198   -0.693639
H     -0.338231   -1.909209    0.985060
H      3.323506   -2.818994    1.967026
H      4.782291   -1.881460    1.586777
H      3.986944   -1.043890   -1.107549
H      3.463821   -2.477494   -2.028529
H      3.579581   -0.035034    0.703057
H      2.740405   -0.514824    2.215806
H      1.580924   -0.943607   -1.676147
H      1.341569   -2.542344   -0.784626
H     -0.119506    2.281278    1.893172
H      2.033118    0.995848   -0.157555
H      1.185328    0.824678    1.395273
H     -0.123073    0.328298   -1.357298
H      3.458988   -3.750850   -0.019224
H     -2.379607    0.511802    1.882719
