47

C     -3.913569    2.549816   -0.746703
C     -3.857037    1.257434    0.041207
C      4.482974    1.709031    0.149031
C      4.775544    1.404563    1.453935
C      3.516749    1.001046   -0.505595
C      4.108768    0.399671    2.103505
C     -0.811022   -2.290288    1.405877
C      0.497708   -2.767671    0.765583
C      1.138928   -0.970042   -1.627452
C      0.177749    0.155210   -1.849049
C     -2.325950   -0.261789    1.318552
C     -1.462157    1.162975   -0.566612
C     -1.507124   -1.191672   -0.728695
C     -2.446589    1.018794    0.518144
C     -1.165746   -1.010840    0.759406
C      2.828676   -0.028015    0.147808
C      1.820188   -0.881747   -0.290632
C      3.138874   -0.315968    1.456983
C      1.527645   -1.684181    0.765464
N      2.317383   -1.338543    1.797643
N     -1.134155    0.021032   -1.350433
H     -3.750062    2.399446   -1.834479
H     -3.126392    3.221297   -0.367262
H     -4.871571    3.087090   -0.580545
H     -4.535943    1.410333    0.918487
H     -4.238367    0.468464   -0.635537
H      5.014523    2.500969   -0.349259
H      5.560176    1.993957    1.954663
H      3.240382    1.197243   -1.543253
H      4.343105    0.168053    3.122550
H     -1.538496   -3.103551    1.228798
H     -0.592939   -2.112990    2.464727
H      0.354543   -3.200544   -0.228559
H      0.825145   -3.626110    1.424217
H      1.960506   -0.813100   -2.395810
H      0.773779   -1.974706   -1.832365
H      0.655582    1.062160   -1.423006
H      0.088523    0.401280   -2.951367
H     -3.250921   -0.861887    1.082247
H     -2.311362   -0.113076    2.395352
H     -0.533747    1.661576   -0.150750
H     -1.848957    1.938990   -1.288936
H     -1.114836   -2.115220   -1.127745
H     -2.630332   -1.290958   -0.841867
H     -2.256428    1.841319    1.274081
H     -0.276012   -0.323362    0.856410
H      2.352268   -1.755488    2.765195
