49

C     -3.288351   -2.382893   -0.917031
C     -3.104970   -1.039836   -1.548042
C     -2.738277   -2.374317    0.463466
C     -1.473238    4.084439    0.745558
C     -1.413894    2.754782    1.107772
C     -0.722693    4.555664   -0.322378
C     -2.589225    0.008795   -0.564045
C     -1.348119   -1.784898    0.578091
C      3.685176   -1.171741   -0.818754
C      3.492211   -1.507097    1.514332
C      2.207440   -0.765551   -0.673574
C      3.133648   -0.042092    1.325699
C      0.149151    2.363779   -0.668033
C      0.816739    0.025091    1.191993
C     -0.599389    1.907460    0.392861
C      0.089406    3.693185   -1.029582
C     -0.509276    0.485298    0.760933
C     -1.201280   -0.461765   -0.143063
Cl     1.033232    4.319024   -2.379821
N      4.188890   -1.890645    0.302429
N      1.972005    0.072882    0.423260
O     -0.592953   -0.696552   -1.372447
H     -4.386384   -2.581892   -0.836440
H     -2.861439   -3.205775   -1.520003
H     -2.359225   -1.126784   -2.349570
H     -4.081028   -0.624728   -1.933346
H     -2.643560   -3.436753    0.804761
H     -3.437601   -1.900306    1.208742
H     -2.118050    4.775107    1.304218
H     -2.023324    2.440702    1.950519
H     -0.779008    5.609295   -0.597246
H     -3.299706    0.077062    0.247349
H     -2.481441    0.919731   -1.187199
H     -0.643018   -2.553201    0.185198
H     -1.194291   -1.654655    1.691983
H      4.265396   -0.298259   -1.124272
H      3.682912   -1.877496   -1.692305
H      4.152414   -1.571937    2.388878
H      2.577454   -2.127605    1.613048
H      1.700076   -1.746952   -0.566583
H      2.018626   -0.238121   -1.625283
H      2.862479    0.380117    2.311312
H      4.013105    0.499166    0.913203
H      0.805898    1.751245   -1.269500
H      1.048780    0.494003    2.224501
H      0.738151   -1.077260    1.529696
H     -1.160015    0.414188    1.718744
H      5.194964   -1.577864    0.443394
H     -0.778396    0.085964   -1.955997
