41

C     -1.652030   -1.605193    1.441147
C      4.119800    0.930658   -0.183008
C      3.073584    1.335179   -1.147428
C      3.913323   -0.440346    0.358938
C      2.059457    0.573965   -1.530895
C      3.170665   -1.327221   -0.587094
C     -3.606125    1.120517    0.483495
C     -4.636375    0.448969    1.275310
C      1.846430   -0.796434   -1.031837
C     -2.181837    0.742665    0.644880
C      0.770092   -0.926518    0.018927
C     -1.420795    1.592710   -0.301314
C     -1.216154   -1.413769   -1.432658
C     -1.771460   -0.629319    0.292361
C     -0.556050   -0.467566   -0.550175
Cl    -4.676022   -1.291352    0.917820
N     -0.548321    0.906515   -0.933650
O      1.135761   -0.227137    1.135233
O     -1.569880    2.965028   -0.535166
O     -0.852553   -2.131035   -2.400974
O     -2.404921   -1.220389   -0.793676
H     -1.994581   -2.608631    1.128592
H     -2.127954   -1.246723    2.380555
H     -0.575909   -1.692946    1.692235
H      5.119611    0.977148   -0.690893
H      4.188342    1.674554    0.643126
H      3.157162    2.349369   -1.570668
H      4.917756   -0.918376    0.536032
H      3.426192   -0.389867    1.355274
H      1.369219    0.985873   -2.249863
H      3.085972   -2.331826   -0.096845
H      3.809448   -1.415283   -1.514227
H     -3.867109    1.059306   -0.610477
H     -3.663536    2.229642    0.696929
H     -4.599567    0.628041    2.367289
H     -5.654432    0.834532    0.969888
H      1.504177   -1.439174   -1.885433
H     -1.777397    0.989522    1.656749
H      0.730359   -2.011566    0.263689
H      1.052122    0.738539    1.063396
H     -1.096462    3.447940   -1.275585
