31

C      4.834606    0.408676    0.915086
C      3.888917   -0.576717    1.065523
C      4.482739    1.525791    0.200185
C      2.612457   -0.430604    0.501650
C      3.230224    1.660902   -0.348817
C     -1.996784   -0.676077    0.370558
C     -2.987418    0.136580   -0.436067
C      2.242680    0.681133   -0.217297
C     -0.759816   -0.997220   -0.489110
C     -4.193120    0.462888    0.366202
C      0.907151    0.844773   -0.811892
C     -1.288730   -1.779923   -1.659893
N     -0.060025    0.121291   -0.804293
O     -4.345544    0.102314    1.549220
O     -5.187998    1.203718   -0.241151
O      0.735137    2.084764   -1.522771
O     -1.118611   -1.458012   -2.850513
O     -2.004365   -2.922999   -1.366379
H      5.824652    0.289227    1.355637
H      4.131371   -1.484151    1.629649
H      5.219711    2.301533    0.078885
H      1.924345   -1.224918    0.651210
H      2.949555    2.555020   -0.920643
H     -1.686115   -0.099126    1.255335
H     -2.465268   -1.631693    0.622370
H     -3.317988   -0.368172   -1.342467
H     -2.514440    1.093741   -0.745391
H     -0.226767   -1.766576    0.117096
H     -6.162646    1.149067    0.034838
H      0.008346    2.134365   -2.207406
H     -2.676257   -3.339594   -2.011848
