54

C     -4.315519    0.211542   -2.661214
C     -5.937196    0.727574   -0.943852
C      4.624579    1.696496   -1.635552
C      5.981822    0.074418   -0.443516
C     -3.237987    1.281366    0.434709
C      3.315067   -1.266075   -0.367035
C     -2.189041    1.124145    1.459187
C      2.141781   -1.915187    0.247752
C     -0.541116   -0.436793    2.332914
C      0.407889   -1.499523    1.896447
C     -2.205698   -0.341418   -1.058350
C      2.206690    0.893053   -0.423708
C     -4.575987    0.327515   -1.364739
C      4.663546    0.723789   -0.764935
C     -3.510053    0.055030   -0.400789
C      3.490373    0.185110   -0.042546
C     -1.007310    0.295569    1.064354
C      0.961827   -1.070212    0.527934
C     -1.287786   -0.767474    0.064480
C      1.207995    0.392267    0.627501
O     -1.954752   -1.817187    0.733923
O      1.845371    0.625648    1.868817
O     -0.081636   -1.269851   -0.405890
O      0.021684    1.099950    0.569454
H     -3.339775   -0.077199   -3.026730
H     -5.059061    0.397584   -3.430477
H     -6.266907    0.213077   -0.018183
H     -6.701357    0.443461   -1.724462
H     -6.016346    1.825762   -0.836202
H      5.520440    2.034390   -2.120809
H      3.686638    2.167293   -1.872183
H      6.003222   -0.987634   -0.760098
H      6.137213    0.122615    0.672704
H      6.821201    0.599439   -0.940359
H     -3.035144    2.163747   -0.216049
H     -4.209535    1.526329    0.954461
H      4.261815   -1.787727   -0.060943
H      3.293516   -1.350187   -1.487206
H     -2.651853    0.755291    2.415418
H     -1.797721    2.146584    1.723782
H      1.804443   -2.744203   -0.444456
H      2.497760   -2.474697    1.163733
H     -1.483848   -0.901263    2.745925
H     -0.158490    0.254837    3.081731
H     -0.019677   -2.512617    1.850291
H      1.286515   -1.550969    2.572255
H     -2.421509   -1.254711   -1.651403
H     -1.829989    0.494447   -1.645858
H      2.274205    1.986350   -0.343091
H      1.828780    0.568211   -1.407628
H     -3.818886   -0.759277    0.287703
H      3.669268    0.304950    1.039467
H     -2.251422   -2.510841    0.122349
H      1.951958    1.577206    2.040974
