110

C      9.842174   -0.454516    3.171160
C      9.995847   -2.833811    2.566438
C     -5.912516    0.497796    5.894649
C      8.533605    1.199544    0.989153
C     -8.117436   -2.188413    2.697713
C      1.128348    0.033852   -3.432563
C     -3.403781   -1.422016    1.864544
C     -5.558650   -0.368694   -2.234571
C     -4.585891   -1.001831    2.713596
C     -2.577571   -0.329032    1.284746
C     -5.425863    0.467816   -1.253414
C     -4.600168   -1.253285   -2.983976
C      4.277583    1.849660   -2.961094
C      3.394286    2.068016   -2.009529
C     -4.897223   -0.094984    3.567136
C     -6.321702    1.368735   -0.476181
C     -1.440898   -0.234236    0.709253
C      4.661308    0.474001   -3.338955
C      2.659568    1.114402   -1.194374
C     -3.492143   -1.126372   -3.633407
C     10.138721   -1.176157    0.725223
C      8.748396   -1.123334    0.223735
C     -7.326033    0.464587    4.004637
C     -7.926890   -0.533367   -0.041872
C     -1.274888    1.591404   -1.050560
C      6.487900   -0.055395    0.599373
C      0.377622    2.404583   -3.440439
C     10.373381   -1.393163    2.162841
C     -6.073473    0.270606    4.374021
C      8.002345    0.062384    0.621778
C     -8.619558   -0.847427    2.293843
C     -7.324458    0.743031    0.410961
C     -0.647942    0.923449    0.135955
C      6.167555    0.275991   -3.154068
C     -9.121059   -0.787086    0.884321
C     -7.767025    0.318925    2.608376
C      1.160701    1.293736   -1.289014
C     -0.948049    0.700345   -2.253461
C     -2.524978   -0.088126   -4.027393
C      6.504338    0.518898   -1.738527
C      0.526188    1.145671   -2.624031
O      1.543265    2.885439   -3.937287
O      6.797522    1.249692   -3.952866
O     -9.949914    0.342035    0.781679
O     -2.265012    0.033617   -5.313088
O      7.158964    1.567510   -1.412873
O      6.126173   -0.366955   -0.754046
O     -6.793634    0.659801    1.696490
O      0.559256    0.385358   -0.409286
O     -1.810905    0.812006   -3.308382
H      8.737853   -0.456965    3.202636
H     10.181162   -0.837553    4.205881
H     10.285793    0.556556    3.114141
H     10.156513   -3.473969    1.701234
H      8.940487   -2.872717    2.925653
H     10.643503   -3.129185    3.394601
H     -4.874459    0.458830    6.196136
H     -6.464702   -0.309838    6.405369
H     -6.330479    1.480894    6.147698
H      9.591438    1.389646    1.037492
H      7.874959    2.042442    1.276933
H     -7.522515   -2.694160    1.912707
H     -8.978441   -2.862224    2.925262
H     -7.571004   -2.084020    3.665524
H      1.517686   -0.733568   -2.707185
H      0.358911   -0.451114   -4.103389
H      1.900388    0.399497   -4.116564
H     -3.755768   -2.144737    1.077363
H     -2.818729   -2.049661    2.556703
H     -6.592111   -0.601821   -2.727351
H     -5.315936   -1.854138    2.391579
H     -3.301765    0.565952    1.498251
H     -4.414607    0.682022   -0.712643
H     -5.084487   -2.334734   -2.938382
H      4.725317    2.715441   -3.469384
H      3.178172    3.143587   -1.784931
H     -4.128530    0.730725    3.921727
H     -5.721489    2.088215    0.173646
H     -6.826671    2.152432   -1.132238
H     -0.709507   -1.095268    0.474443
H      4.100558   -0.281790   -2.787685
H      4.460857    0.400224   -4.451209
H      2.948417    0.048104   -1.294503
H      2.896552    1.362517   -0.106419
H     -2.989345   -2.073810   -4.111967
H     10.655170   -0.206841    0.413349
H     10.697069   -1.966120    0.123279
H      8.185501   -2.067179    0.482490
H      8.815768   -1.202967   -0.911269
H     -8.102968    0.744159    4.768832
H     -7.246116   -1.394313   -0.045648
H     -8.353200   -0.402250   -1.052045
H     -0.973958    2.623854   -1.159260
H     -2.361936    1.574991   -0.928965
H      6.162356   -0.851867    1.275052
H      6.032810    0.927405    0.823322
H     -0.259389    3.167521   -2.945687
H     -0.244538    2.088387   -4.337362
H     11.515707   -1.400866    2.299166
H     -9.567089   -0.697989    2.925772
H     -8.199739    1.468425    0.531976
H     -0.276505    1.644096    0.867480
H      6.442748   -0.731142   -3.484433
H     -9.657142   -1.712648    0.570993
H     -8.498360    1.215064    2.492613
H      0.997128    2.351237   -0.903047
H     -0.837833   -0.313395   -1.895393
H      1.901893    2.355797   -4.687126
H      6.474629    1.174075   -4.877259
H    -10.857412    0.186677    1.135674
