60

C     -5.386281    3.896080   -0.967847
C      6.067378    0.372554    1.466068
C      4.779135   -1.625494    0.800890
C      6.133310   -0.429500   -0.855579
C     -5.488328   -5.313849    1.417913
C      3.916635    1.506210   -1.759938
C      3.835848    2.369154    1.126469
C     -5.713253    2.807957   -1.968333
C     -0.073276   -1.254109   -0.282020
C      0.614188   -0.279785   -1.250972
C      0.140325    0.903468    0.723874
C     -5.348541   -1.144511   -0.251779
C     -0.791355   -0.301591    0.632654
C      1.249034    0.681619   -0.268946
C     -4.273795   -0.272940   -0.318707
C     -3.062268   -0.742710    0.200470
C     -4.375424    1.051131   -0.888403
C     -4.040331   -2.811619    0.783728
C      5.250153   -0.246078    0.360626
N     -5.209191   -2.368694    0.287062
N     -2.087225    0.079940    0.126845
N     -2.986743   -1.978238    0.726709
O     -3.369910    1.779797   -0.916087
O     -5.564893    1.509188   -1.396331
O      2.353924    0.040116    0.281762
S     -3.890688   -4.458352    1.498324
Si     3.804907    0.881595   -0.008686
H     -4.283846    4.067560   -0.920245
H     -5.905162    4.833348   -1.263779
H     -5.693353    3.570103    0.046926
H      6.078609    1.476929    1.358060
H      5.548100    0.119439    2.423394
H      7.088465   -0.042968    1.410168
H      4.768617   -1.709708    1.895347
H      3.770309   -1.759813    0.361667
H      5.444012   -2.411142    0.353654
H      5.877577    0.292440   -1.638603
H      7.210732   -0.274236   -0.619536
H      5.986802   -1.444966   -1.290030
H     -5.463397   -5.992199    0.554212
H     -6.280304   -4.543364    1.187818
H     -5.744085   -5.809825    2.371210
H      4.889759    2.066819   -1.829545
H      3.969966    0.671004   -2.490978
H      3.093781    2.189606   -1.973423
H      3.721739    2.014092    2.161508
H      4.739302    2.978256    0.988011
H      2.922507    2.972463    0.887017
H     -5.066580    2.897200   -2.885280
H     -6.749635    2.932711   -2.284728
H     -0.741162   -1.942752   -0.836000
H      0.720729   -1.758716    0.271085
H      1.357531   -0.812187   -1.871013
H     -0.127392    0.274946   -1.849866
H     -0.411504    1.848648    0.554442
H      0.598242    0.889137    1.730480
H     -6.318742   -0.810806   -0.650084
H     -0.948734   -0.732910    1.657882
H      1.530931    1.620287   -0.793679
H     -2.067151   -2.320736    1.114876
