58

C     -2.286169   -2.149900    1.540452
C      2.495347   -2.862466   -2.867374
C     -4.775191    3.053150    3.879832
C     -5.573025    1.523050   -1.341994
C     -1.506498    1.354536    1.559495
C      2.949336    0.292651    0.690448
C     -2.532396    1.903614    2.334351
C      4.218865    0.390647    1.213043
C     -3.011280    1.176029   -0.232857
C      3.814387    0.385215   -1.486449
C     -1.486057   -1.956822   -0.620042
C      1.766869   -2.259669   -0.757925
C      7.362013    0.336780   -0.560017
C     -1.738858    0.983777    0.260702
C      2.717742    0.287647   -0.667046
C     -0.355166   -1.031863   -0.252425
C      0.816210   -1.203543   -1.231555
C     -3.797580    2.087265    1.821105
C      5.318639    0.488476    0.390397
C     -4.035770    1.712739    0.506787
C      5.109099    0.485175   -0.968339
C     -0.716267    0.399815   -0.624374
C      1.370740    0.184290   -1.246135
O     -2.569641   -1.850235    0.226194
O      2.836631   -2.465268   -1.581079
O     -4.819556    2.623509    2.560103
O     -5.315590    1.902790    0.001010
O      6.702439    0.598327    0.656765
O      6.366375    0.593472   -1.560247
O      0.497630    1.024861   -0.563971
H     -3.241823   -2.025992    2.111230
H     -1.958570   -3.213190    1.620272
H     -1.550349   -1.501130    2.025377
H      3.443249   -2.996336   -3.430253
H      1.956274   -2.033537   -3.411664
H      1.951139   -3.805976   -2.906531
H     -3.778193    3.137315    4.334052
H     -5.380639    3.984011    4.016010
H     -5.317141    2.278302    4.496783
H     -4.955254    2.096426   -2.059804
H     -5.248949    0.445608   -1.427443
H     -6.653934    1.534720   -1.576685
H     -0.512838    1.208935    1.957922
H      2.084604    0.215895    1.340444
H     -2.285683    2.175961    3.353246
H      4.374536    0.392097    2.274786
H     -3.271062    0.902235   -1.267753
H      3.697497    0.386818   -2.562264
H     -1.835917   -1.654337   -1.637934
H     -1.130886   -3.014663   -0.697964
H      1.185080   -3.203392   -0.612050
H      2.146555   -1.991576    0.247954
H      7.627134   -0.724527   -0.609121
H      8.202127    1.034165   -0.725289
H      0.005772   -1.129595    0.771556
H      0.336297   -1.465904   -2.197199
H     -1.061495    0.405168   -1.668132
H      1.349190    0.554447   -2.314499
