110

C     12.578659   -1.224368   -1.195511
C     11.813399    0.858815   -0.160999
C     -5.300364   -1.167663    3.114965
C      8.407879   -1.758166   -0.647103
C     -8.267553    0.749817    0.455262
C      0.606839    2.652024    0.355357
C     -4.305474   -3.816162   -0.722847
C     -5.579162    3.251074    0.980323
C     -5.376302   -3.700113    0.402579
C     -3.413074   -2.633440   -0.908018
C     -4.982556    3.253913   -0.136240
C     -5.190272    3.375677    2.426803
C      3.864423   -0.575524   -0.265486
C      2.928867    0.306313   -0.709058
C     -5.670414   -2.735509    1.091580
C     -5.553367    3.100870   -1.564346
C     -2.470666   -2.085617   -0.149790
C      3.295088   -1.960141   -0.229210
C      1.637421   -0.079313   -1.083876
C     -3.905787    3.278131    2.816943
C     10.891389   -1.331195    0.514524
C      9.705149   -1.040107    1.266909
C     -5.788592   -0.239194    0.967651
C     -7.426189    1.638615   -2.262523
C     -2.364740    0.403664    0.061475
C      7.246048   -1.318727    1.539324
C     -0.815795    2.130160   -1.547993
C     11.272794   -0.519423   -0.666264
C     -5.637963   -1.370289    1.608877
C      8.323502   -1.365357    0.694620
C     -7.644167   -0.114458   -0.577757
C     -5.971657    1.686681   -1.910582
C     -1.621133   -0.864013   -0.429393
C      3.671874   -2.575512    1.174270
C     -8.029895    0.315966   -1.956631
C     -6.135549   -0.208584   -0.465776
C      0.351857    0.263867   -0.521147
C     -1.392054    1.362492    0.753738
C     -2.809367    3.057676    2.056518
C      5.180616   -2.645807    1.136180
C     -0.199256    1.565009   -0.225964
O     -1.560651    3.238395   -1.286983
O      3.366723   -1.482053    2.041513
O     -7.513231   -0.587911   -2.906838
O     -1.862565    4.128445    2.470398
O      5.683988   -3.710933    0.791573
O      5.935933   -1.585666    1.461467
O     -5.436529    0.728112   -1.126166
O     -0.346357   -0.810341    0.102990
O     -2.019258    2.469449    1.171946
H     12.722838   -1.023797   -2.248044
H     12.470405   -2.336603   -1.044858
H     13.439578   -0.919874   -0.594123
H     11.210877    1.685086   -0.580623
H     11.841196    0.832553    0.941875
H     12.866370    0.947532   -0.503937
H     -5.653993   -0.200123    3.449524
H     -4.179590   -1.214722    3.142065
H     -5.685667   -2.020172    3.684229
H      9.324158   -1.793476   -1.080643
H      7.507615   -1.984215   -1.140724
H     -9.211160    0.358683    0.901228
H     -7.506490    0.934982    1.283291
H     -8.518360    1.779458    0.126536
H      1.703387    2.393361    0.329227
H      0.562649    3.555485   -0.313262
H      0.315183    2.879320    1.394418
H     -3.866999   -4.795269   -0.732277
H     -4.945837   -3.826519   -1.683588
H     -6.739144    3.169167    1.126596
H     -5.788296   -4.772485    0.416730
H     -3.777723   -2.225307   -1.916240
H     -3.902809    3.409237   -0.361290
H     -5.923913    3.534031    3.217787
H      4.834009   -0.390867    0.018004
H      3.282464    1.336551   -0.750233
H     -6.628704   -3.072412    1.899626
H     -6.163977    3.904407   -1.903939
H     -4.642341    3.238333   -2.244911
H     -2.093415   -2.427166    0.833028
H      3.880991   -2.569593   -0.917601
H      2.276793   -2.119245   -0.415707
H      1.552888    0.559007   -2.108885
H      1.586677   -1.045981   -1.565749
H     -3.793178    3.427075    3.955168
H     10.887984   -2.433427    0.265797
H     11.770515   -1.199691    1.270358
H      9.561555    0.165933    1.188349
H      9.655978   -1.203200    2.343915
H     -5.607712    0.722408    1.492465
H     -7.908155    2.506674   -1.738498
H     -7.640040    1.869028   -3.355093
H     -3.042344    0.003604    0.809666
H     -2.904721    0.905348   -0.728394
H      7.565676   -2.078338    2.480518
H      7.315178   -0.334719    2.199649
H     -1.339024    1.340901   -2.087500
H      0.063383    2.384657   -2.149544
H     10.646771   -0.268012   -1.471865
H     -8.070743   -1.151143   -0.404722
H     -5.490999    1.477955   -2.942117
H     -1.410686   -0.680280   -1.496889
H      3.157255   -3.453439    1.368113
H     -9.154152    0.337500   -2.029543
H     -5.842360   -1.196500   -0.889285
H     -0.271345    0.069233   -1.564232
H     -1.033223    0.789995    1.648093
H     -1.095553    4.067481   -1.204671
H      2.799907   -0.799798    1.574772
H     -7.142140   -1.358195   -2.372593
