28

C     -2.269239   -1.030994   -2.130941
C     -1.211672   -1.341378    1.347263
C     -1.315815    1.128375    1.573021
C     -1.085117   -1.007317   -1.544730
C      3.447757    0.695580   -0.030366
C      2.589936    1.719283   -0.359701
C      2.887880   -0.556663    0.106814
C      1.236312    1.557657   -0.553421
C      1.513794   -0.750793   -0.084452
C     -1.535754   -0.052921    0.655077
C      0.693476    0.297119   -0.411766
C     -0.759558    0.112755   -0.627582
H     -2.529165   -1.832672   -2.800341
H     -2.995692   -0.242558   -1.945486
H     -2.010785   -1.585076    2.089267
H     -1.163325   -2.161604    0.604693
H     -0.272100   -1.262608    1.901885
H     -1.204193    2.072842    1.020259
H     -0.419541    0.960692    2.196200
H     -2.164074    1.259862    2.277712
H     -0.387792   -1.811175   -1.754708
H      4.522926    0.864392    0.116195
H      3.005377    2.712991   -0.473433
H      3.487384   -1.413380    0.362887
H      0.620058    2.431839   -0.815463
H      1.103704   -1.742285    0.023610
H     -2.605353   -0.065271    0.388885
H     -1.179428    1.043307   -1.131378
