33

C      4.182179   -1.637986   -0.942919
C     -1.950252    4.372708    0.560043
C      3.676501   -1.840436    0.458893
C     -3.023640   -2.431598   -0.071275
C     -2.806095   -1.657625    1.049806
C     -2.356701   -2.091329   -1.238747
C     -1.957389   -0.583809    1.015895
C     -1.500558   -0.997585   -1.249208
C      0.876866    0.681170    0.667766
C     -1.259002    3.230653   -0.117378
C     -1.280388   -0.226533   -0.142210
C     -0.374736    0.937724   -0.143036
C      1.671729   -0.446531    0.180329
O     -0.846427    3.330032   -1.311104
O      1.341756   -1.132560   -0.817340
O      2.842536   -0.781968    0.840643
O     -1.039715    2.026047    0.519082
H      4.469420   -0.564065   -1.039924
H      3.380316   -1.931526   -1.647058
H      5.087689   -2.261594   -1.085985
H     -2.622274    4.019827    1.353520
H     -2.583126    4.886211   -0.204835
H     -1.221607    5.123497    0.940150
H      4.539160   -1.877976    1.146784
H      3.078201   -2.786686    0.540794
H     -3.685045   -3.272416   -0.053768
H     -3.339359   -1.940604    1.958526
H     -2.518719   -2.683371   -2.109054
H     -1.813452   -0.005437    1.907779
H     -1.013935   -0.782962   -2.181144
H      0.616234    0.544443    1.748935
H      1.515476    1.587845    0.634677
H     -0.085644    1.194437   -1.168635
