33

C      3.946013   -0.747503   -1.731213
C      3.748858   -0.963888    0.717502
C     -3.104921   -1.332124   -0.499059
C     -4.580065    0.244703    0.636499
C      0.276631    1.983656   -0.652431
C      2.977314   -0.738046   -0.565547
C     -3.162486   -0.276278    0.593000
C     -0.253663    2.209242    0.745853
C      0.975802    0.657235   -0.659582
C     -1.196133    1.105420    1.066374
O      0.740767    2.346300    1.679615
O      0.263034   -0.384288   -0.767389
O     -1.038849    0.397870    2.119510
O      2.345402    0.531484   -0.554725
O     -2.272684    0.777366    0.275194
H      4.323689    0.287509   -1.852197
H      4.732486   -1.500715   -1.643109
H      3.328017   -0.957754   -2.646433
H      4.220050   -0.057685    1.099923
H      3.078562   -1.411311    1.493501
H      4.521846   -1.724019    0.501035
H     -3.189106   -0.800344   -1.467322
H     -2.076655   -1.796161   -0.496335
H     -3.894317   -2.088373   -0.336018
H     -4.566257    1.317959    0.365317
H     -5.048810    0.070916    1.627981
H     -5.246781   -0.294658   -0.091909
H      1.022287    2.751866   -0.944332
H     -0.513533    1.967941   -1.407175
H      2.185887   -1.509897   -0.669957
H     -2.879197   -0.782483    1.541458
H     -0.806850    3.191622    0.698862
H      1.143664    1.442412    1.823108
