83

C      4.953866   -0.503771   -1.921728
C     -2.790834   -2.689136    1.167313
C      5.689432    0.567796   -2.339404
C     -3.258966   -3.958717    1.557176
C      4.190901    0.776336   -0.077561
C     -2.188275   -3.567670   -0.933165
C     -4.415239    2.794425   -0.710148
C     -5.477478    2.662438    1.422731
C      1.794525    1.696921   -2.642709
C      0.826577   -0.417253   -3.056876
C      3.585466   -2.108216    2.172776
C      1.071333    0.138186    3.837121
C      4.177823   -0.410649   -0.759224
C     -2.255511   -2.465225   -0.058867
C     -4.485964    2.241941    0.560232
C      1.600250    0.637994   -3.494716
C      2.476988   -1.188384    2.379954
C      5.695353    1.768236   -1.639045
C     -3.192617   -5.031827    0.704649
C      2.123532   -0.720713    3.643912
C      4.940168    1.883535   -0.493260
C     -2.649184   -4.799340   -0.537688
C      1.237316    1.713230   -1.385657
C      0.338599    0.552856    2.754086
C     -5.325511    3.745919   -1.091286
C     -6.377774    3.615565    1.020291
C      4.110161   -2.290728    0.815129
C      0.235387   -0.463550   -1.800364
C      0.459983    0.626522   -0.977098
C      0.653915    0.109363    1.460599
C     -0.178553    0.580973    0.347813
C     -6.323193    4.172074   -0.229886
C      3.377146   -1.562168   -0.275494
C     -1.717066   -1.203851   -0.601336
C      1.699140   -0.734460    1.309774
C     -1.527400   -0.118709    0.367753
C     -3.523454    1.223271    0.999619
O      2.165854    0.632772   -4.756275
O      6.442723    2.858482   -2.061904
O     -3.657434   -6.273272    1.104637
O      2.912969   -1.183706    4.713636
O      4.914032    3.064398    0.239783
O     -2.598536   -5.922604   -1.381529
O      1.411882    2.770041   -0.490878
O     -0.723124    1.414967    2.912979
O     -5.294932    4.325800   -2.350007
O     -7.360017    4.016566    1.907616
O      4.112619   -3.674728    0.531187
O     -7.243646    5.148013   -0.643856
O     -3.599025    0.726831    2.123617
O     -0.538935   -1.513370   -1.352219
O      2.074006   -1.204679    0.080203
O     -2.550945    0.848372    0.130922
H      4.919123   -1.466982   -2.440944
H     -2.871345   -1.878615    1.865766
H      6.285211    0.493996   -3.232354
H     -3.676036   -4.061728    2.556501
H      3.620390    0.921438    0.819262
H     -1.762480   -3.439737   -1.938827
H     -3.628864    2.464180   -1.403721
H     -5.555663    2.243028    2.427851
H      2.405885    2.541031   -2.977906
H      0.651134   -1.283781   -3.716725
H      4.426868   -1.742229    2.836280
H      3.292723   -3.081837    2.669255
H      0.870326    0.447746    4.845422
H      5.192634   -1.993146    0.739348
H     -0.436459    1.670718    0.653158
H      3.277173   -2.259750   -1.158884
H     -2.498908   -0.890284   -1.379088
H     -1.701530   -0.484974    1.397083
H      2.039271   -0.130588   -5.399308
H      6.990298    2.742709   -2.916743
H     -3.612288   -7.076201    0.477859
H      2.727442   -0.899505    5.654452
H      5.437594    3.873201   -0.036676
H     -2.202732   -5.772951   -2.296566
H      1.978239    3.542915   -0.815533
H     -0.961560    1.740228    3.836171
H     -4.578814    4.028652   -2.994045
H     -8.046819    4.720434    1.644107
H      4.560031   -3.800972   -0.342399
H     -7.159178    5.525908   -1.576127
