26

C     -3.016811    0.002034    0.841074
C     -1.792157    0.788574   -1.106842
C      3.126296    0.938399   -1.002978
C     -0.812059   -0.923865    0.479787
C      1.369032    0.217095    0.714955
C     -1.617579    0.300748    0.279232
C      2.775234    0.250122    0.255500
C      0.596845   -0.892705    0.012447
O      3.636208   -0.289826    0.908353
O      1.197170   -2.097600    0.405859
H     -3.822015    0.383921    0.195745
H     -3.180232   -1.096570    0.948206
H     -3.124336    0.451098    1.850643
H     -1.142466    0.336807   -1.877751
H     -1.589497    1.900786   -1.151991
H     -2.845983    0.705305   -1.476582
H      3.348589    0.154273   -1.789378
H      2.332288    1.622758   -1.367008
H      4.036443    1.553025   -0.823063
H     -0.774354   -1.117336    1.592498
H     -1.333549   -1.804391    0.048103
H      0.892005    1.203898    0.547004
H      1.352381   -0.019227    1.802746
H     -1.178629    1.116336    0.922388
H      0.704317   -0.817184   -1.089543
H      0.862859   -2.866477   -0.119403
