26

C     -3.186443   -0.385757    1.202906
C     -2.399573    0.467614   -0.989924
C      4.048458   -0.733168   -0.681197
C     -0.800683   -0.524197    0.596436
C      1.568039   -0.715182    0.027532
C     -2.068346    0.281628    0.464441
C      2.710399   -0.097540   -0.687256
C      0.328585    0.166742   -0.159911
O      2.573826    0.946792   -1.295614
O      0.507985    1.414295    0.393029
H     -2.745313   -0.989175    2.033455
H     -3.851605    0.375114    1.663078
H     -3.791120   -1.060526    0.541545
H     -1.703263    1.195495   -1.465750
H     -3.457018    0.855288   -1.040566
H     -2.361356   -0.475200   -1.550002
H      4.093702   -1.649558   -1.302944
H      4.286157   -1.048964    0.358841
H      4.829977   -0.005627   -0.975190
H     -0.956157   -1.521861    0.091832
H     -0.481789   -0.670412    1.627651
H      1.784312   -0.712384    1.119036
H      1.401788   -1.722433   -0.350783
H     -1.871642    1.288001    0.907339
H      0.098459    0.268969   -1.227104
H      1.442621    1.566954    0.699119
