29

C      3.737004    0.593035    0.116940
C      2.517094    0.687125   -0.752820
C      1.731715   -0.584275   -0.828401
C     -2.487797    1.092994   -1.178474
C     -1.196152    0.920650   -0.679578
C     -3.544360    0.553047   -0.517452
C      1.219248   -1.071096    0.471301
C     -0.931766    0.217306    0.471072
C     -3.299830   -0.156909    0.641322
C      0.295210   -0.132841    1.211941
C     -2.003208   -0.329116    1.141510
C     -1.466926   -0.992770    2.318766
O     -4.373885   -0.711172    1.321962
O     -2.223281   -1.598044    3.143654
O     -0.099079   -0.848736    2.359765
H      4.405631   -0.246022   -0.176256
H      3.518388    0.613527    1.190484
H      4.343705    1.522932   -0.088465
H      2.875507    0.915386   -1.787815
H      1.913984    1.537778   -0.420863
H      2.460610   -1.375964   -1.192042
H      0.988617   -0.508942   -1.618967
H     -2.671579    1.648289   -2.082820
H     -0.391899    1.382601   -1.252964
H     -4.551495    0.688056   -0.908097
H      0.650354   -2.019677    0.334070
H      2.039169   -1.319726    1.174361
H      0.852280    0.764891    1.554551
H     -4.307260   -1.242328    2.168239
