83

C      5.176200    1.067741   -1.567540
C     -2.503607    3.396330   -0.011117
C      6.191079    2.013566   -1.615487
C     -3.695303    4.114808   -0.002519
C      6.120693    0.249582    0.444592
C     -3.009971    2.554710    2.136345
C     -5.527235   -0.602058   -1.168600
C     -3.917552   -0.010772   -2.756585
C      1.225348   -1.502277    4.120333
C      0.562845    0.793244    4.254630
C      3.501109   -2.411915   -2.223970
C      0.064475   -3.479177   -1.131397
C      5.126776    0.167537   -0.530559
C     -2.153288    2.609167    1.062566
C     -4.218240   -0.229616   -1.424713
C      1.027802   -0.358020    4.862228
C      2.158243   -2.479537   -1.579789
C      7.158470    2.059127   -0.624722
C     -4.536039    4.044981    1.081985
C      1.294251   -3.526062   -1.777259
C      7.134283    1.171233    0.423638
C     -4.205496    3.271932    2.151256
C      0.966351   -1.533782    2.754727
C     -0.287222   -2.401086   -0.305942
C     -6.465939   -0.747340   -2.157526
C     -4.867373   -0.154751   -3.776402
C      4.476437   -2.116960   -1.076850
C      0.307056    0.747885    2.881412
C      0.511068   -0.397474    2.172019
C      0.557332   -1.360500   -0.105138
C      0.210726   -0.257935    0.724930
C     -6.160769   -0.526626   -3.492093
C      4.110332   -0.874132   -0.356539
C     -0.902290    1.864467    1.033003
C      1.802805   -1.417470   -0.761144
C     -1.142475    0.349499    0.705668
C     -3.284238   -0.085955   -0.363207
O      1.290725   -0.337464    6.231222
O      8.179787    3.006661   -0.666167
O     -5.732669    4.787889    1.051828
O      1.608499   -4.610255   -2.590278
O      8.118298    1.220851    1.426530
O     -5.039693    3.191640    3.246458
O      1.174539   -2.721106    2.003545
O     -1.555247   -2.523696    0.264709
O     -7.769857   -1.128796   -1.814850
O     -4.498797    0.080456   -5.092678
O      4.361445   -3.245599   -0.227699
O     -7.160462   -0.689798   -4.453885
O     -3.705369   -0.282602    0.838893
O     -0.171118    1.924443    2.238643
O      2.769378   -0.419106   -0.636807
O     -1.937144    0.242623   -0.418950
H      4.412406    1.011030   -2.322660
H     -1.857475    3.477658   -0.903071
H      6.220562    2.730615   -2.451682
H     -3.959495    4.732827   -0.871871
H      6.133020   -0.449624    1.300070
H     -2.770874    1.944975    2.998459
H     -5.796872   -0.785043   -0.111057
H     -2.906642    0.282001   -2.998588
H      1.594740   -2.393865    4.621907
H      0.397229    1.708896    4.808269
H      3.565767   -1.611242   -2.990458
H      3.779415   -3.358644   -2.677552
H     -0.614718   -4.301531   -1.291734
H      5.496442   -2.060123   -1.500135
H      0.960588    0.574927    0.404612
H      4.127609   -1.148146    0.747525
H     -0.257154    2.266309    0.221600
H     -1.776729    0.074166    1.604722
H      0.607957   -0.564864    6.930765
H      8.882049    3.044912    0.050996
H     -5.963858    5.354790    0.247329
H      2.441386   -4.758132   -3.097791
H      8.033539    0.527429    2.181516
H     -5.908254    3.666829    3.338289
H      1.518143   -3.505191    2.532278
H     -2.175097   -3.282067    0.107122
H     -8.482121   -1.247436   -2.517032
H     -5.121677   -0.011747   -5.856159
H      3.670881   -3.869786   -0.492820
H     -6.989729   -0.548430   -5.413593
