29

C     -4.001711   -0.466472    0.788889
C     -3.026582    0.675343    0.847822
C     -1.824987    0.301753   -0.015059
C      1.740288   -2.379892   -0.087039
C      0.858896   -1.430183   -0.562775
C      2.931325   -2.013815    0.495368
C     -0.827414    1.421312    0.019699
C      1.124846   -0.073218   -0.478600
C      3.202051   -0.681033    0.580382
C      0.381354    1.132343   -0.849903
C      2.326865    0.276303    0.106432
C      2.433479    1.736468    0.028122
O      4.414460   -0.328187    1.173473
O      3.427380    2.366391    0.485672
O      1.310089    2.192875   -0.595925
H     -3.564710   -1.407338    1.176870
H     -4.906349   -0.246111    1.393499
H     -4.365743   -0.661823   -0.247410
H     -3.520250    1.566096    0.423140
H     -2.698434    0.800117    1.881374
H     -1.320068   -0.578502    0.485049
H     -2.109413    0.098044   -1.055428
H      1.457427   -3.430816   -0.190003
H     -0.059879   -1.776878   -1.028788
H      3.574033   -2.801152    0.846984
H     -1.331192    2.338781   -0.342824
H     -0.479998    1.596762    1.060315
H      0.118977    1.156460   -1.922010
H      4.735259    0.616372    1.298323
