31

C     -1.583330    2.312693   -1.197842
C     -3.003904   -1.087820    1.688857
C      2.311612   -0.513130   -1.147542
C      3.139308   -0.940677    1.205713
C      0.378236    1.531702    0.085805
C     -0.457057   -1.043951   -0.115085
C     -0.827939    1.313350   -0.366394
C     -2.248180    0.081367    1.204790
C     -1.524440    0.037868   -0.079250
C      1.158927    0.618042    0.888552
C      0.645202   -0.767742    0.841897
C      2.008973   -0.452161    0.328345
O     -2.249979    1.088687    1.918407
H     -0.878065    2.967767   -1.739167
H     -2.161833    2.933929   -0.482811
H     -2.311719    1.803158   -1.854559
H     -2.899839   -1.244371    2.796803
H     -4.080665   -0.898118    1.496003
H     -2.724629   -1.982558    1.128768
H      1.625674    0.080530   -1.765532
H      2.368977   -1.578437   -1.437883
H      3.354522   -0.110790   -1.267756
H      3.624569   -0.061320    1.700544
H      2.769937   -1.635378    2.003192
H      3.939318   -1.436317    0.621166
H      0.851698    2.506539   -0.166577
H     -0.941816   -1.995160    0.138168
H     -0.124946   -1.109761   -1.174964
H     -2.232979   -0.162840   -0.903441
H      1.519403    1.059576    1.853219
H      0.554963   -1.314679    1.825117
