50

C      0.601450   -0.315571   -1.557778
C     -5.602944    0.717646    0.660302
C      4.333813    0.289421   -2.510971
C      2.980786    0.703411   -2.797773
C     -3.224170   -0.069959   -1.062753
C     -2.113021    0.978656   -0.969505
C      1.392082    0.356934    2.561286
C     -2.689844    0.569394    1.135319
C      0.882408    0.032937   -0.163374
C     -4.875838   -0.598814    0.756674
C     -3.441697   -0.512398    0.336289
C      3.098844   -0.482612   -1.894771
C      2.398898    0.061620    1.721187
C      0.108403    0.504500    2.078146
C      2.164241   -0.104927    0.329885
C     -0.169887    0.347458    0.718092
C      3.661511   -0.079949    2.252006
C      4.436396   -0.525578    0.120310
F     -0.840302    0.843063    2.979419
N     -5.507989   -1.639619   -0.003535
N      5.945169   -0.527683    1.927623
N     -1.465568    0.644213    0.271915
N      3.194678   -0.392672   -0.460434
N      4.661824   -0.375823    1.423316
O      3.818614    0.074893    3.490691
O      5.380119   -0.809402   -0.669342
H     -0.486242   -0.753371   -1.471232
H      0.440405    0.423382   -2.294434
H      1.036801   -1.309787   -1.888872
H     -5.184980    1.405522    1.395609
H     -6.660009    0.514263    0.981267
H     -5.671261    1.109952   -0.364669
H      4.907206   -0.157910   -3.305407
H      4.908996    0.975281   -1.866340
H      2.547475    1.628765   -2.337545
H      2.516899    0.507950   -3.792741
H     -2.841315   -0.895817   -1.674815
H     -4.121259    0.365404   -1.546883
H     -2.715995    1.955147   -0.734265
H     -1.570184    1.179707   -1.845501
H      1.597507    0.479293    3.629290
H     -2.510581    0.235630    2.135326
H     -3.190085    1.533669    0.988614
H     -4.894408   -0.903691    1.825429
H     -2.949960   -1.462934    0.582294
H      3.201777   -1.519146   -2.349952
H     -5.521850   -1.331437   -1.007463
H     -4.858203   -2.470996    0.021647
H      6.337715   -1.483005    2.075570
H      6.553573    0.284991    2.172851
