52

C      3.732273    2.401511    0.178309
C      5.166781   -0.883756    0.014931
C      1.314609   -2.920159   -0.955368
C     -4.014888    0.858217   -0.730645
C     -3.532364   -0.464770    1.239354
C     -0.192071   -0.262302    1.397247
C      4.574482    1.419703    0.072291
C     -1.465780    2.407476   -0.066420
C      2.778205   -0.417233    0.274521
C     -1.010242   -2.514422   -0.336600
C      1.959237   -0.173441   -0.939964
C     -2.031637   -1.558924   -0.947569
C     -2.452397    1.766223    0.879654
C     -0.163939    1.623096   -0.122204
C      4.194650    0.024418    0.113324
C      0.344766   -2.060399   -0.750141
C      0.554132   -0.617832   -0.931650
C     -1.781200   -0.135844   -0.557283
C     -2.896719    0.455817    0.254372
C     -0.391571    0.130956   -0.016785
H      2.684546    2.303106    0.307096
H      4.104998    3.426631    0.134819
H      4.914077   -1.920176    0.042388
H      6.171395   -0.566722   -0.088608
H      2.318558   -2.705565   -1.253063
H      1.117741   -4.007030   -0.816357
H     -4.155783    0.071670   -1.500784
H     -3.841411    1.845606   -1.156395
H     -4.991314    0.916911   -0.178768
H     -3.199464   -1.496984    1.254628
H     -4.659110   -0.515308    1.142846
H     -3.397827    0.004105    2.259207
H      0.516009   -1.109064    1.474136
H      0.221773    0.559568    2.015737
H     -1.100867   -0.590943    1.932039
H      5.657188    1.670419   -0.058554
H     -1.885482    2.426444   -1.070688
H     -1.289599    3.455843    0.247653
H      2.386784    0.283182    1.087938
H      2.798598   -1.427049    0.667585
H     -1.133214   -2.667274    0.734565
H     -1.247962   -3.513777   -0.811041
H      2.486255   -0.771310   -1.772190
H      2.034389    0.854975   -1.312401
H     -3.047630   -1.934245   -0.716195
H     -1.927596   -1.728818   -2.061867
H     -3.325373    2.446231    0.953206
H     -2.054647    1.637225    1.894815
H      0.378385    1.930804   -1.018751
H      0.407524    1.993598    0.782295
H      0.149580   -0.399248   -1.976968
H     -1.776846    0.448859   -1.529401
