30

C      3.463814    1.736654    0.424234
C     -1.438250    0.239942   -0.655428
C     -1.317260   -1.345747    1.036092
C      1.362417    0.394275    0.104232
C     -3.755570    0.967229   -0.034384
C      2.754719    0.465829    0.178709
C     -2.857640   -0.208569   -0.269756
C     -0.669182   -0.959736   -0.214386
C     -2.570624   -0.919522    1.011802
C      3.515263   -0.684931    0.019327
C      1.531270   -1.857148   -0.266756
F     -3.467951   -1.108173    2.021695
N      2.863065   -1.823139   -0.201307
N      0.746320   -0.763184   -0.118021
O     -3.892832    1.781752   -1.128970
O      4.888464   -0.687754    0.080445
O      1.003346   -2.993089   -0.481442
H      4.461238    1.520078    0.883994
H      3.643261    2.257151   -0.521750
H      2.906153    2.396888    1.133052
H     -1.371316    0.444901   -1.733496
H     -1.233162    1.161372   -0.103460
H     -0.873033   -1.899383    1.883178
H      0.774190    1.271913    0.225492
H     -3.379798    1.508506    0.869430
H     -4.746839    0.563809    0.257927
H     -3.197377   -0.876544   -1.076646
H     -0.860225   -1.765094   -0.958645
H     -3.630377    2.694521   -0.917184
H      5.347914   -1.512805    0.450526
