72

C     -1.565968   -1.515085    2.910393
C     -3.940389   -2.123239    2.706840
C     -1.731967    3.343608   -0.073059
C     -3.161338    2.655705   -1.998384
C      5.532315   -1.533414   -0.666138
C      4.334614   -0.855246   -2.630353
C      0.874447    0.888365    2.583533
C      2.419501    2.622750    1.826184
C     -1.390247   -0.882804   -3.816989
C     -0.082382   -1.275287   -3.987865
C     -1.799861   -0.464690   -2.571056
C      0.756180   -1.228852   -2.895266
C     -3.960987   -1.058764   -0.020112
C     -4.205476    0.357087   -0.208915
C      3.469833   -1.438710    0.999297
C      3.404335    0.024967    1.228509
C     -2.836683   -1.205569    2.187226
C     -2.975018    2.553479   -0.507591
C      4.213074   -0.889104   -1.160568
C      1.448719    1.521710    1.355352
C     -2.693011   -1.352691    0.703895
C     -3.059100    1.226951    0.105023
C      3.129478   -1.665290   -0.519269
C      2.226836    0.631291    0.467814
C     -0.964607   -0.417509   -1.479279
C      0.378834   -0.812357   -1.626747
P     -1.645241    0.108381    0.098724
P      1.493148   -0.792658   -0.305308
H     -1.686632   -2.483538    3.465892
H     -0.780036   -1.731616    2.136110
H     -1.261762   -0.782787    3.656979
H     -3.748827   -2.420662    3.752157
H     -4.890468   -1.570030    2.605552
H     -3.912989   -3.028273    2.067886
H     -1.452845    3.093591    0.967652
H     -0.865335    3.092823   -0.712159
H     -1.977960    4.423772   -0.095451
H     -3.453075    3.705357   -2.269141
H     -2.218328    2.374316   -2.549448
H     -3.929505    1.934384   -2.310887
H      5.350447   -2.604135   -0.505947
H      5.981494   -0.979586    0.155578
H      6.305078   -1.502604   -1.492062
H      5.386935   -0.581961   -2.886173
H      4.159618   -1.834481   -3.128998
H      3.714685   -0.044403   -3.099047
H     -0.204037    1.120665    2.685560
H      1.361451    1.300355    3.519638
H      0.986612   -0.205747    2.606322
H      1.791147    3.350238    2.392078
H      2.820664    3.173150    0.955151
H      3.173842    2.234977    2.509488
H     -2.054517   -0.917154   -4.674219
H      0.281482   -1.616289   -4.970414
H     -2.817542   -0.167896   -2.462686
H      1.774600   -1.575937   -3.106558
H     -3.948237   -1.642943   -0.972008
H     -4.781207   -1.569047    0.571217
H     -5.065309    0.654210    0.484289
H     -4.688320    0.510049   -1.212180
H      2.758783   -2.003052    1.616066
H      4.460890   -1.840439    1.134018
H      3.130278    0.138993    2.323850
H      4.337083    0.592187    1.134262
H     -3.137267   -0.173214    2.475357
H     -3.824062    3.192808   -0.096523
H      4.233454    0.132003   -0.787124
H      0.704808    2.090468    0.765283
H     -2.223139   -2.298945    0.446585
H     -3.201120    1.444299    1.240297
H      3.054645   -2.712972   -0.726087
H      2.685482    1.306044   -0.316045
