51

C     -6.253696   -1.534602   -0.885871
C     -4.873080   -1.511770   -1.201473
C      6.576262   -1.061738   -0.219891
C      5.235667   -1.282047   -0.100777
C      2.388535   -0.777373    1.239893
C     -6.840664   -0.509324   -0.163799
C      1.274602    0.145201    1.590512
C     -2.691527   -0.299260   -0.905495
C     -2.591022    1.230540    0.940766
C      6.145130    1.306062   -0.439385
C     -0.880850   -0.519312    0.948985
C      0.615534    0.511743   -0.708902
C     -2.239155   -0.246892    0.504509
C     -4.188768   -0.441597   -0.755491
C      7.023064    0.221333   -0.389702
C      4.281771   -0.263899   -0.141947
C      2.834501   -0.555945   -0.183593
C      4.805723    1.013358   -0.308505
C     -3.856150    1.679232    0.346754
C      2.043566    0.183770   -1.103325
C     -4.779315    0.579774   -0.032343
Cl     3.750469    2.423834   -0.197310
F      8.325454    0.485722   -0.525604
N     -6.091312    0.543082    0.258928
N      0.217239    0.265948    0.586012
O     -4.535316    2.609306    1.104006
O      1.880907   -0.605656   -2.313091
H     -6.812511   -2.400467   -1.233278
H     -4.458818   -2.309359   -1.769151
H      7.259351   -1.933612   -0.164128
H      4.861657   -2.291654    0.028284
H      3.232685   -0.474872    1.960387
H      2.151046   -1.799388    1.475676
H     -7.889612   -0.581568    0.033123
H      0.780145   -0.078325    2.545816
H      1.640461    1.204348    1.702832
H     -2.289082   -1.142200   -1.490637
H     -2.542460    0.671413   -1.421531
H     -2.527322    1.278421    2.042584
H     -1.696298    1.813514    0.558175
H      6.475182    2.331740   -0.563451
H     -0.819602   -0.725145    2.077956
H     -0.600062   -1.590270    0.576122
H     -0.116970    0.018720   -1.415136
H      0.411996    1.617759   -0.912979
H     -2.948116   -0.832188    1.188869
H      2.844544   -1.671873   -0.598487
H     -3.604067    2.187837   -0.641791
H      2.469567    1.096983   -1.543862
H     -4.758120    3.436713    0.559356
H      1.358838   -1.416020   -2.092486
