70

C      3.752092    2.638460   -1.747429
C      2.502205   -0.812407    0.742631
C     -4.201430   -1.680684   -0.579239
C     -4.726339   -2.703207    1.551131
C     -3.136083   -3.754700    0.049991
C      7.295824   -0.544630    0.953213
C      6.303893   -1.511760    0.918164
C      7.119500    0.639310    0.249797
C      5.178280   -1.252712    0.182279
C      5.975836    0.876619   -0.484620
C     -5.603461    2.703406    0.982194
C     -4.660537    1.765050    1.332101
C     -4.210031    3.324048   -0.860436
C      2.002139    1.674142   -0.380641
C      1.316671   -0.481377   -1.320863
C     -3.016931   -0.489081    1.899634
C     -1.426331   -1.364814    0.458034
C      3.051924    1.359916   -1.427776
C      2.697628   -0.887679   -0.726961
C      4.979758   -0.061160   -0.534659
C     -5.374256    3.483946   -0.119902
C     -3.496035    1.599161    0.595368
C     -2.498704    0.635816    1.066044
C     -1.533504    0.078417    0.065624
C     -3.262079    2.375519   -0.501809
C     -0.293097    0.864639    0.136452
C     -3.599351   -2.415370    0.584591
C      3.757866    0.105318   -1.270896
F     -6.260363    4.432198   -0.514126
F     -2.140655    2.287960   -1.291891
N      0.939074    0.661712   -0.518654
N     -2.563330   -1.713486    1.281006
O     -0.308433    1.914472    0.909686
O      4.012578   -0.429054   -2.575665
H      4.105222    3.230945   -0.894422
H      4.427342    2.593535   -2.629299
H      2.923969    3.325058   -2.165181
H      2.401599   -1.835142    1.226074
H      1.538073   -0.329560    1.065970
H      3.270586   -0.274480    1.320310
H     -4.999998   -2.391887   -0.975073
H     -3.536449   -1.534955   -1.441182
H     -4.792597   -0.798336   -0.268080
H     -4.519480   -2.397736    2.589796
H     -5.018532   -3.777167    1.551851
H     -5.668327   -2.164940    1.276643
H     -2.672751   -4.398071    0.803651
H     -4.070321   -4.295846   -0.287047
H     -2.548344   -3.647988   -0.896122
H      8.189424   -0.732069    1.528235
H      6.426944   -2.433113    1.467069
H      7.898983    1.400988    0.277398
H      4.444145   -2.067394    0.177501
H      5.917148    1.836591   -1.028217
H     -6.517082    2.836324    1.570818
H     -4.898925    1.191462    2.234865
H     -4.018020    3.936236   -1.733874
H      2.366680    1.814464    0.623116
H      1.577450    2.674203   -0.709175
H      0.676576   -1.328067   -1.046645
H      1.355066   -0.312863   -2.390916
H     -4.123114   -0.437514    1.929956
H     -2.600947   -0.488627    2.926469
H     -0.515498   -1.509453    1.053582
H     -1.352879   -2.055335   -0.415484
H      2.398533    1.220238   -2.374789
H      2.881804   -1.893085   -1.129386
H     -1.844213    1.257663    1.818159
H     -1.928230    0.146383   -0.987253
H      4.251841    0.321549   -3.171693
