50

C     -0.625709   -1.519046    0.048766
C      5.169353   -1.224628   -0.459690
C     -3.104326   -2.396267    1.028453
C     -4.400150   -2.446941    0.398695
C      3.405773    0.075513    1.618096
C      1.916522    0.219496    1.711588
C     -1.307171    2.624346   -0.515510
C      2.545992    0.040597   -0.559263
C     -0.924112   -0.096808   -0.120622
C      5.035707    0.252933   -0.292309
C      3.702598    0.664051    0.255451
C     -3.156670   -1.844779   -0.315531
C     -2.361371    1.739400   -0.640267
C     -0.050478    2.197416   -0.195418
C     -2.182362    0.367762   -0.441982
C      0.127654    0.834129   -0.001022
C     -3.608092    2.221932   -0.989566
C     -4.475623    0.086728   -0.947955
F      1.002445    3.033508   -0.063781
N      6.041031    0.678059    0.672044
N     -5.913427    1.911576   -1.500538
N      1.447008    0.377571    0.324335
N     -3.264853   -0.416183   -0.601403
N     -4.664499    1.405126   -1.145547
O     -3.771218    3.463977   -1.169925
O     -5.431435   -0.705725   -1.089636
H      0.505311   -1.570236   -0.246765
H     -0.416855   -1.868036    1.065115
H     -0.897587   -2.219808   -0.731805
H      6.223880   -1.413062   -0.819216
H      4.535036   -1.613122   -1.309161
H      5.063210   -1.813264    0.455061
H     -2.535058   -3.335732    1.180136
H     -2.850290   -1.655073    1.843582
H     -4.754191   -3.479889    0.134464
H     -5.235256   -1.829584    0.674370
H      3.901430    0.645581    2.431942
H      3.643184   -1.009866    1.675292
H      1.627371    1.115029    2.318122
H      1.482638   -0.649736    2.201404
H     -1.468998    3.695810   -0.674281
H      2.722958   -1.040091   -0.572054
H      2.464571    0.507676   -1.540876
H      5.165493    0.728390   -1.269458
H      3.579757    1.744038    0.315354
H     -3.149026   -2.391667   -1.275855
H      5.898217    1.683043    0.959111
H      6.080290    0.030193    1.467918
H     -6.622912    2.114080   -0.790126
H     -6.115761    2.081582   -2.499736
