52

C      5.772148    0.739261    0.614127
C      3.812915   -2.258980    0.665327
C      1.228379    2.482407    0.666957
C     -3.650379   -1.174374    0.217356
C     -3.831444    1.162286    0.881712
C     -0.567462   -1.754555   -0.614371
C      5.454867   -0.525404    0.740911
C     -2.492826   -0.063632   -2.409223
C      3.040909    0.023708    0.157928
C     -0.082430    0.984715    2.027159
C      1.720983   -0.723896   -0.008167
C     -1.250219    0.055099    1.666674
C     -3.389431    0.629053   -1.438587
C     -1.036672    0.158843   -2.094317
C      4.087618   -0.983647    0.528125
C      0.639957    1.292945    0.741617
C      0.687828    0.312975   -0.377968
C     -1.643324    0.358996    0.253309
C     -3.095618    0.170000   -0.038423
C     -0.675387   -0.271726   -0.689739
H      4.991597    1.443825    0.345710
H      6.777276    1.056331    0.773562
H      2.822791   -2.680238    0.524888
H      4.585945   -2.965348    0.932400
H      1.756220    2.704075   -0.276059
H      1.203544    3.203005    1.468917
H     -3.831915   -1.730561   -0.750050
H     -4.681044   -1.067251    0.640041
H     -3.097827   -1.789595    0.952513
H     -3.220613    2.062792    1.037932
H     -4.803612    1.356459    0.399704
H     -4.034025    0.606528    1.819699
H     -1.510543   -2.304454   -0.767612
H     -0.133959   -2.138946    0.329641
H      0.077864   -2.067754   -1.489456
H      6.228870   -1.251744    1.011290
H     -2.675244    0.374438   -3.413014
H     -2.740469   -1.148319   -2.502346
H      3.312341    0.421941   -0.821738
H      2.987636    0.784006    0.961921
H      0.573992    0.539481    2.776985
H     -0.556702    1.935341    2.345666
H      1.527843   -1.178470    0.993130
H      1.895433   -1.458994   -0.807664
H     -2.066410    0.269694    2.393399
H     -0.867619   -0.967609    1.824250
H     -3.181431    1.725249   -1.511135
H     -4.440183    0.444837   -1.721672
H     -0.855294    1.251312   -2.152688
H     -0.407519   -0.385937   -2.797433
H      1.116325    0.864458   -1.259639
H     -1.483682    1.477374    0.127180
