29

C     -1.350627    1.652855   -2.795369
C     -2.096747    1.414319   -1.666290
C     -0.260150    0.857950   -3.036777
C     -1.752881    0.400367   -0.802055
C      0.070229   -0.150409   -2.164296
C      2.532179    0.074835    1.254890
C      2.211938    1.333899    1.493934
C     -0.670111   -0.417667   -1.006208
C      1.520307   -0.973629    1.185929
C      0.822007    1.740198    1.702219
C     -0.660854   -1.623198    1.204615
C     -0.215769   -1.502813   -0.172830
C      0.228265   -0.613449    1.915226
O      0.542860    2.930782    1.925666
O     -1.962713   -1.554340    1.517641
O      1.189056   -1.382448   -0.072312
O     -0.144884    0.724696    1.634516
H     -1.627221    2.459752   -3.479813
H     -2.953996    2.042916   -1.481103
H      0.353513    1.033354   -3.939861
H     -2.342110    0.221640    0.075101
H      0.942946   -0.739077   -2.416041
H      3.575990   -0.163486    1.109862
H      3.017370    2.084721    1.534910
H      1.885936   -1.897800    1.729789
H     -0.284345   -2.622394    1.586959
H     -0.386158   -2.486230   -0.699288
H      0.319950   -0.809775    2.988335
H     -2.503981   -2.035571    0.872653
