26

C     -1.993847    1.685661   -0.496343
C     -1.722878   -2.116171   -0.167876
C     -2.217953    0.240754   -0.841459
C      0.671972   -0.462600   -0.942549
C      0.478186    0.154647    1.332142
C      2.024616   -0.127854   -0.925125
C      1.821398    0.503719    1.406502
C     -1.512935   -0.673868    0.156895
C     -0.087627   -0.320351    0.178133
C      2.569511    0.346623    0.244562
N      3.946561    0.691364    0.275742
O      4.525575    1.166864    1.420373
O      4.662451    0.570507   -0.735306
H     -2.253560    1.921555    0.549304
H     -2.621417    2.285738   -1.199395
H     -0.925826    1.911578   -0.731872
H     -1.864685   -2.303443   -1.252880
H     -0.839418   -2.693116    0.146905
H     -2.642867   -2.492004    0.328881
H     -3.299051    0.057613   -0.857471
H     -1.830344    0.063687   -1.864795
H      0.288262   -0.834998   -1.897247
H     -0.085295    0.289215    2.262927
H      2.619707   -0.246443   -1.827543
H      2.270430    0.875556    2.304818
H     -1.980965   -0.494233    1.161718
