38

C      1.841123    1.534723   -3.026985
C     -2.698454    2.564005    1.912742
C      2.119955    0.376069   -3.311534
C     -2.003728    1.759505    3.019173
C      2.435337   -0.964409   -3.627947
C      2.701158   -1.858111   -2.728451
C     -2.125964   -1.202004    0.219140
C     -1.613926   -1.060257   -0.989290
C      2.727769   -1.756003   -1.311854
C     -1.483332   -0.851718    1.517773
C     -0.203862   -0.488386   -1.311078
C     -0.647365    1.294549    2.569620
C      2.168081   -0.764004   -0.432129
C     -0.688846    0.420348    1.351711
C      0.690081   -0.677751   -0.201652
Br     0.423182    2.881676    2.278171
Cl     2.956481   -1.043081    1.204913
O      0.564555    0.262686    0.837383
H      1.615179    2.534392   -2.793741
H     -3.575153    3.080752    2.366985
H     -2.042818    3.341463    1.512330
H     -3.082949    1.878972    1.138230
H     -1.926322    2.398356    3.931973
H     -2.638070    0.890725    3.241370
H      2.453777   -1.266202   -4.704501
H      2.947936   -2.881578   -3.171304
H     -3.119600   -1.610519    0.280837
H     -2.170400   -1.341967   -1.866458
H      3.842211   -1.899956   -0.938260
H      2.318779   -2.778153   -0.875074
H     -2.240385   -0.790767    2.333412
H     -0.834611   -1.713470    1.820765
H     -0.342894    0.515764   -1.704974
H      0.083575   -1.158505   -2.153360
H     -0.178636    0.789699    3.443009
H      2.601263    0.257333   -0.686955
H     -1.265807    1.012543    0.571807
H      0.392681   -1.686717    0.285227
