102

C     -9.532513   -3.437781   -2.212310
C    -10.737770   -2.640755   -1.810872
C      2.852756    0.293530   -1.031422
C      3.187080   -0.817970   -0.149698
C      3.935779    1.081308   -1.677191
C      2.026308   -1.534700    0.433377
C      4.843427    0.455587   -2.611819
C      1.188005   -0.830604    1.382988
C      5.766500   -0.638435   -2.345233
C      0.395587    0.378294    1.083485
C      6.852863   -0.510232   -1.352281
C     -8.387968    3.202925   -0.078810
C     -9.104094    2.308655    0.826330
C     -0.565576    0.102478   -0.035103
C      6.522406   -0.271451    0.059522
C     -7.087445    2.931413   -0.673562
C     -9.487933    1.019091    0.207710
C     -1.421325    1.189728   -0.464694
C      7.817571   -0.164405    0.880703
C     -5.884377    2.870819    0.178612
C     -9.167083   -0.178027    0.648627
C     -4.497912   -0.283491    2.661811
C     -2.405773    1.854414    0.384011
C     -3.226875   -0.074160    1.803285
C      8.657449   -1.390262    0.843521
C     12.123816   -1.512672   -0.228895
C     10.605709   -0.178293    1.232169
C     11.151728   -0.328128   -0.158403
C     -5.605973   -0.577317    1.666432
C     -5.685928    1.842278    1.199263
C     -9.587026   -1.403542   -0.028644
C     -5.631268    0.470743    0.613271
C     -3.565923    1.094534    0.917408
N     11.988557    0.834734   -0.500615
O     11.475695   -2.682592    0.072875
O     -5.339117   -1.849326    1.153098
O     -9.233413   -2.500905    0.469235
O      9.800359   -1.212582    1.630465
O    -10.344802   -1.411765   -1.175723
O     -4.354601    1.970157    1.665135
O     -4.401691    0.561924   -0.090634
H     -9.710430   -4.513267   -1.968776
H     -8.599555   -3.108847   -1.695254
H     -9.418017   -3.312966   -3.327963
H    -11.382288   -3.226247   -1.112574
H    -11.366429   -2.354864   -2.679087
H      2.144927    0.993455   -0.540157
H      2.256828   -0.148662   -1.910363
H      3.736797   -0.381268    0.772558
H      3.939997   -1.538139   -0.567070
H      4.375478    1.751843   -0.896896
H      3.364415    1.886040   -2.312334
H      1.387244   -2.000241   -0.394670
H      2.456740   -2.491842    0.920598
H      5.394401    1.296857   -3.178248
H      4.168923    0.081727   -3.492221
H      1.729556   -0.683494    2.393927
H      0.392890   -1.608158    1.737906
H      5.335136   -1.670167   -2.285078
H      6.372079   -0.777619   -3.357665
H     -0.218142    0.512555    2.065246
H      0.888333    1.349987    1.035552
H      7.448623   -1.475032   -1.413788
H      7.573177    0.284099   -1.691205
H     -9.110486    3.370667   -0.974244
H     -8.431900    4.248351    0.391073
H    -10.048448    2.862073    1.154905
H     -8.612952    2.078631    1.799294
H     -1.117635   -0.835067    0.175433
H      0.075313   -0.190019   -0.925552
H      6.017611    0.689333    0.240723
H      5.981954   -1.126881    0.537898
H     -7.125672    2.008141   -1.345865
H     -6.839113    3.734905   -1.468741
H    -10.090274    1.058931   -0.694861
H     -0.761675    2.001397   -0.922526
H     -1.985406    0.831272   -1.390687
H      8.331529    0.734106    0.458777
H      7.478561   -0.005550    1.922474
H     -5.653953    3.918709    0.578921
H     -4.990346    2.751896   -0.549064
H     -8.592550   -0.242844    1.558575
H     -4.720971    0.635270    3.202480
H     -4.345612   -1.111483    3.369260
H     -1.932764    2.389181    1.272744
H     -2.798067    2.718263   -0.193428
H     -3.182843   -0.982317    1.192954
H     -2.444728    0.085911    2.532174
H      8.923610   -1.754569   -0.163992
H      8.077681   -2.211218    1.324296
H     12.496417   -1.539557   -1.281643
H     12.956340   -1.267361    0.462576
H     10.168082    0.823898    1.333889
H     11.495205   -0.193265    1.918015
H     10.372538   -0.495714   -0.920326
H     -6.522922   -0.580673    2.240271
H     -6.302266    1.908703    2.118414
H     -6.414002    0.247888   -0.134358
H     11.489716    1.663508   -0.070970
H     12.884806    0.691576    0.030785
H     12.136990   -3.403216    0.190727
H     -5.067659   -2.411841    1.912328
