102

C     14.586235    1.508206    0.874562
C     13.329261    2.088100    1.450271
C     -4.044132    1.578092   -2.115075
C     -2.889306    1.794701   -1.190037
C     -5.127543    0.720052   -1.499118
C     -2.196997    0.508518   -0.784229
C     -6.228561    0.564580   -2.526458
C     -1.061099    0.845512    0.148248
C     -7.316759   -0.302771   -1.849809
C     -0.308320   -0.423939    0.582697
C     -8.431908   -0.527809   -2.778274
C      7.421130    1.203795   -0.807180
C      8.635353    0.583320   -1.469434
C      0.813771   -0.071819    1.516547
C     -9.587651   -1.346613   -2.391038
C      7.229442    0.863492    0.609130
C      9.886722    1.012488   -0.788841
C      1.844898    0.823310    1.004981
C    -10.491374   -0.893803   -1.345271
C      6.976036   -0.503994    1.060084
C     10.833305    1.669968   -1.419439
C      3.792764   -3.124805   -0.422251
C      2.703899    0.505978   -0.120779
C      3.075620   -1.984906    0.248594
C     -9.934177   -0.673425    0.005302
C    -12.308079   -0.990172    3.369493
C    -10.383393   -0.154227    2.140989
C    -11.385678    0.202753    3.207127
C      5.112053   -2.838532   -0.999190
C      5.718775   -1.189964    0.662454
C     12.034951    2.049707   -0.652178
C      5.540909   -1.388283   -0.784152
C      3.665431   -0.658244    0.003565
N    -10.630779    0.381720    4.452863
O    -13.010851   -1.139457    2.181977
O      5.153815   -3.048999   -2.382184
O     12.957459    2.680647   -1.222464
O    -11.014608   -0.343442    0.913688
O     12.174232    1.731085    0.674867
O      4.600010   -0.414062    1.005531
O      4.454544   -0.606780   -1.155600
H     15.345136    2.318261    0.781046
H     14.351089    1.114585   -0.157835
H     14.954499    0.648796    1.470308
H     13.147081    1.570202    2.439270
H     13.375351    3.154175    1.675851
H     -4.492430    2.574851   -2.315922
H     -3.720607    1.178320   -3.083960
H     -2.134876    2.404911   -1.759737
H     -3.159480    2.407172   -0.319587
H     -5.550659    1.192701   -0.590631
H     -4.738699   -0.271293   -1.216653
H     -2.906762   -0.198190   -0.331490
H     -1.751440    0.010496   -1.681424
H     -5.872698    0.074751   -3.436138
H     -6.702192    1.556933   -2.697759
H     -0.412929    1.597575   -0.286549
H     -1.548550    1.216479    1.096934
H     -7.569908    0.192110   -0.939058
H     -6.777728   -1.244456   -1.597188
H     -0.073839   -1.061395   -0.256954
H     -1.071578   -0.976232    1.197101
H     -7.996657   -1.009199   -3.730359
H     -8.753647    0.488447   -3.180458
H      7.663723    2.329341   -0.837835
H      6.564414    1.104306   -1.465203
H      8.619965   -0.494209   -1.567029
H      8.666690    1.022468   -2.500509
H      0.276205    0.407257    2.401679
H      1.220744   -0.996132    1.965692
H    -10.205070   -1.604852   -3.347923
H     -9.239360   -2.409227   -2.099832
H      8.107438    1.295588    1.212623
H      6.323060    1.482179    0.954483
H     10.022005    0.778011    0.251779
H      1.339557    1.832134    0.812342
H      2.534060    1.119145    1.867570
H    -11.011401    0.097164   -1.654140
H    -11.375521   -1.616484   -1.235473
H      6.959622   -0.476742    2.200787
H      7.847513   -1.206114    0.871807
H     10.762578    1.939085   -2.466967
H      3.138631   -3.527957   -1.251818
H      3.902446   -4.014634    0.266011
H      3.399078    1.389367   -0.303681
H      2.201019    0.408375   -1.111039
H      3.141591   -2.212165    1.353887
H      2.027917   -2.013526   -0.024459
H     -9.444894   -1.545438    0.420888
H     -9.345399    0.284197    0.089326
H    -11.647442   -1.883611    3.535456
H    -13.005271   -0.876211    4.236746
H     -9.590371    0.626779    2.028969
H     -9.883072   -1.125504    2.395001
H    -11.934362    1.112350    2.916273
H      5.932006   -3.466501   -0.549284
H      5.564266   -2.144260    1.261371
H      6.423325   -1.186132   -1.417191
H    -11.162048    0.995051    5.119880
H     -9.707055    0.798147    4.199324
H    -12.846539   -1.983132    1.714191
H      5.632075   -3.868090   -2.585693
