51

C      1.166765   -0.445286    2.479977
C     -3.757445    1.046865    1.068094
C     -3.402806   -1.282695    1.592552
C     -0.694378    0.963325   -1.431739
C     -2.479934   -1.166832   -1.662595
C      0.227044    1.593057    1.603636
C      6.037909   -0.063320   -1.008427
C      5.355555    0.492088   -1.997450
C     -1.266154    1.553014    1.212309
C     -3.455345   -0.562116   -0.728256
C     -1.112895   -1.416064   -1.129631
C      3.855317   -0.627278    0.170572
C      1.722247    0.033153   -0.919688
C      0.769604    0.192237    1.416695
C      3.155232   -0.085077   -0.792618
C      5.333280   -0.648342    0.119825
C      0.766351   -0.410059    0.074852
C      3.911322    0.512321   -1.947107
C     -1.529777    0.119581    0.761385
C     -2.975941   -0.191787    0.615733
C     -0.680221   -0.151098   -0.430002
O      5.910500   -1.190192    1.090071
O      3.312985    1.051071   -2.910362
H      1.560479   -1.445355    2.408592
H      1.126432   -0.017151    3.483533
H     -3.423247    1.959493    0.579932
H     -3.852131    1.096423    2.162953
H     -4.806915    0.861255    0.691114
H     -2.930620   -1.033311    2.569323
H     -4.488940   -1.393482    1.638033
H     -2.884547   -2.210998    1.242410
H     -1.747488    1.189242   -1.752573
H     -0.250943    1.901734   -1.097737
H     -0.193913    0.648547   -2.367266
H     -2.839069   -2.158194   -2.078635
H     -2.358121   -0.549450   -2.600947
H      0.268807    1.875571    2.662379
H      0.791654    2.329412    1.017910
H      7.114054   -0.078471   -1.045705
H      5.933141    0.911015   -2.809868
H     -1.907204    1.704057    2.109346
H     -1.419350    2.307039    0.459191
H     -4.321069   -1.286684   -0.643511
H     -3.921917    0.320756   -1.247796
H     -0.438763   -1.616268   -1.987997
H     -1.125067   -2.289421   -0.441822
H      3.336711   -1.067537    0.979618
H      1.441378   -0.384091   -1.943970
H      1.534520    1.148991   -1.093880
H      0.757915   -1.530561    0.257395
H     -1.124997   -0.509126    1.602152
