28

C      3.171722   -0.638487    0.648078
C     -1.225256   -0.889783    1.391182
C     -2.557032   -0.356261    0.922164
C      0.901445   -1.394652    0.150459
C      1.356346    1.011839    0.544906
C      1.879445   -0.261004   -0.049323
C     -0.523509   -1.005715    0.029811
C      0.105608    1.322051    0.333579
C     -2.153030    0.726513   -0.044844
C     -0.758460    2.410113    0.709457
C     -0.739774    0.395444   -0.487804
O     -0.363761    3.561847    1.044668
O     -0.538275    0.534352   -1.833925
O     -2.081460    1.963629    0.635536
H      3.444975   -1.667261    0.361329
H      3.022301   -0.652984    1.767246
H      3.971282    0.101640    0.460143
H     -0.712572   -0.088315    1.961515
H     -1.279227   -1.845506    1.904819
H     -3.045023   -1.159999    0.334665
H     -3.186776    0.013886    1.748831
H      1.068201   -1.847739    1.150468
H      1.140996   -2.173949   -0.630930
H      1.967554    1.667292    1.130048
H      2.095034   -0.162088   -1.119789
H     -1.114142   -1.709335   -0.603163
H     -2.855123    0.777722   -0.913990
H     -0.991487    1.366747   -2.131526
