31

C      4.239184    0.889179   -0.119082
C      3.803920   -0.213493    0.585350
C      3.278064    1.661967   -0.737049
C      2.463006   -0.542134    0.676418
C      1.938688    1.343554   -0.652734
C     -2.371640   -1.191995   -0.832339
C     -2.479588    1.245852   -0.615210
C      1.511183    0.223361    0.064361
C     -1.775922    0.128285   -1.336574
C     -1.887464   -1.374829    0.579649
C     -2.833709    0.886161    0.771175
C     -0.372140   -1.319095    0.638480
C      0.059236   -0.012031    0.082900
O     -3.581336    1.639070    1.425672
O     -0.067424   -1.437508    2.015464
O     -0.410312    0.139712   -1.198555
O     -2.352379   -0.262629    1.347662
H      5.307488    1.120692   -0.171068
H      4.537518   -0.851186    1.089430
H      3.595512    2.531616   -1.295166
H      2.120273   -1.411391    1.230626
H      1.218869    1.992583   -1.163176
H     -3.476939   -1.041947   -0.798135
H     -2.063119   -2.007064   -1.501882
H     -1.876540    2.200169   -0.645178
H     -3.415915    1.488970   -1.181703
H     -2.003345    0.212317   -2.418993
H     -2.269235   -2.312266    1.034754
H     -0.001490   -2.192145    0.081353
H     -0.371640    0.785816    0.756974
H     -0.462804   -2.319590    2.286579
