39

C     -2.635280   -0.099593   -1.585857
C     -2.426496   -1.621597    0.327209
C     -4.285973    0.014531    0.268647
C      6.092963   -0.748677   -0.283559
C      5.253730   -1.848034   -0.257704
C      5.491845    0.493944   -0.269940
C      3.880557   -1.752457   -0.219964
C      4.104988    0.596688   -0.231855
C      1.831463   -0.312735   -0.166791
C      3.297116   -0.511535   -0.206818
C     -2.009044    0.747160    0.701022
C     -2.354521    2.163376    0.330176
C      0.098507   -0.032714    1.459149
C     -2.841892   -0.226926   -0.118661
N     -2.819595    3.013413    1.182133
N     -0.601329    0.500738    0.532640
O     -2.184723    2.629825   -0.974285
O     -0.511600   -0.380859    2.652909
O      1.447303   -0.222698    1.181375
H     -1.705176    0.386606   -1.893131
H     -3.475873    0.535326   -1.994209
H     -2.732291   -1.073213   -2.123527
H     -2.693246   -1.736934    1.383142
H     -2.934878   -2.406285   -0.243994
H     -1.326887   -1.736803    0.156409
H     -4.528426    1.047939   -0.108572
H     -4.931942   -0.754408   -0.195913
H     -4.323919    0.007911    1.371031
H      7.171412   -0.822386   -0.313270
H      5.730137   -2.837349   -0.268544
H      6.093041    1.390145   -0.288668
H      3.275832   -2.673236   -0.201202
H      3.701126    1.620848   -0.223270
H      1.607238    0.612263   -0.739495
H      1.324106   -1.133680   -0.711602
H     -2.365786    0.622404    1.740694
H     -2.975507    2.743998    2.176673
H     -2.727913    3.452084   -1.278473
H     -1.009066    0.352922    3.182704
