35

C      4.747160    0.633719   -0.975339
C     -5.408586    0.420840    1.032765
C      1.011035   -2.006636   -0.575998
C     -1.345540    1.094308   -0.889204
C      3.292596    0.718151   -0.517596
C     -4.147371    0.778338    0.303114
C      3.095285   -0.330588    0.574556
C      1.680537   -0.317989    1.088358
C     -0.699193   -0.717030    0.524047
C      0.683189   -0.614480   -0.016430
C     -1.676676    0.081061    0.126141
C     -3.016817   -0.067930    0.694530
O     -3.229329   -0.956133    1.559359
H      4.827474   -0.358032   -1.499862
H      4.978851    1.411775   -1.715649
H      5.396120    0.702519   -0.098206
H     -5.388530   -0.658283    1.356751
H     -6.266344    0.609150    0.353445
H     -5.461584    1.091767    1.935520
H      1.556272   -2.563882    0.190964
H      1.617938   -1.908532   -1.508552
H      0.080220   -2.575715   -0.793314
H     -2.203410    1.727239   -1.178013
H     -0.956382    0.634007   -1.825249
H     -0.559881    1.789972   -0.505977
H      3.018451    1.720756   -0.168589
H      2.685633    0.462316   -1.405103
H     -4.324927    0.610076   -0.797837
H     -3.967030    1.862690    0.411527
H      3.761484   -0.096105    1.429565
H      3.381203   -1.331431    0.201124
H      1.433179    0.658492    1.538194
H      1.532624   -1.102021    1.857287
H     -0.889144   -1.483657    1.272574
H      0.761492    0.081268   -0.852542
