80

C      9.019164    0.521318   -2.063577
C     10.053936    0.679973    0.307010
C      5.751038   -0.581457    1.868317
C     -0.128757   -2.338053    1.280268
C     -3.133871    3.676665   -0.061616
C     -7.412020    0.365331   -1.383150
C     -6.698881   -1.337329    0.155226
C     -3.595364   -0.749532    0.891014
C      6.478056    0.922817   -0.926164
C      3.008408   -0.266889    2.193466
C     -0.706661   -0.047214   -0.098784
C     -4.409459   -0.806436   -2.619179
C      7.653073    0.895781   -0.057692
C      5.523317   -0.177909   -0.696682
C      3.603880   -0.133890    0.841834
C      2.025656   -1.385966    2.223000
C      0.554791   -0.071495    0.742461
C     -1.553195    1.111587    0.380559
C     -4.624402    2.258502    1.208349
C     -5.696703    1.485832    0.476586
C     -5.754653   -1.245890   -2.156116
C     -3.372214   -0.756810   -1.531165
C      8.878404    0.704236   -0.587948
C      4.939646   -0.282353    0.665211
C      0.822449   -1.183263    1.401117
C     -3.521312    2.469507    0.261135
C     -2.847784    1.286502   -0.328707
C     -5.170091    0.564113   -0.560448
C     -6.180180   -0.446535   -0.922042
C     -3.763422    0.078531   -0.336332
H      8.725333    1.428990   -2.614729
H     10.085855    0.316758   -2.282186
H      8.425246   -0.368611   -2.395693
H     10.342837    1.730867    0.528709
H      9.789253    0.125716    1.221500
H     10.905327    0.175181   -0.181901
H      5.934065    0.263733    2.533894
H      5.242121   -1.407909    2.455122
H      6.741347   -1.013756    1.512515
H      0.272172   -3.165048    1.897267
H     -0.156032   -2.723649    0.238661
H     -1.134920   -2.111626    1.672368
H     -3.626477    4.567898    0.370020
H     -2.307334    3.803730   -0.771647
H     -8.142061   -0.379332   -1.765732
H     -7.079790    0.948680   -2.266009
H     -7.821218    0.967200   -0.572531
H     -6.011061   -2.194992    0.275936
H     -6.902061   -0.893717    1.116989
H     -7.678407   -1.824689   -0.149620
H     -3.506118   -1.812008    0.587752
H     -2.780082   -0.415454    1.568848
H     -4.565266   -0.740618    1.482831
H      6.824921    0.833858   -2.000582
H      5.948313    1.901556   -0.797543
H      3.751978   -0.312300    3.011629
H      2.426955    0.704707    2.385033
H     -1.188214   -1.014247   -0.099020
H     -0.375252    0.241100   -1.143109
H     -4.511459    0.154468   -3.158294
H     -4.047180   -1.542296   -3.366716
H      7.575659    1.046746    0.993970
H      4.685504   -0.149210   -1.447767
H      6.021041   -1.173838   -0.913028
H      3.060503    0.068045   -0.054638
H      2.508435   -2.377688    2.004917
H      1.692212   -1.486204    3.288843
H      1.173579    0.821345    0.801447
H     -0.897668    2.013293    0.127199
H     -1.602770    1.190822    1.490552
H     -4.309552    1.755133    2.144439
H     -5.036912    3.249256    1.537943
H     -6.361426    2.270954    0.002715
H     -6.332473    1.033654    1.259920
H     -5.788363   -2.351544   -1.921599
H     -6.460994   -1.125119   -3.003202
H     -2.443778   -0.390306   -2.040447
H     -3.136416   -1.820673   -1.241914
H     -2.606203    1.574842   -1.392568
H     -5.066018    1.207796   -1.496496
