60

C     -3.395732    1.284687   -1.949544
C     -2.382501    1.521319   -0.858086
C     -4.266620    0.089584   -1.684778
C     -1.448604    0.368666   -0.669709
C      1.651731    1.159213    1.295106
C      5.331124   -0.879302   -0.432613
C      2.940308    1.750653    0.744155
C      4.409780   -1.214148    0.741996
C      4.406774    1.449207    2.609653
C      5.259085    0.248976    2.439052
C      8.903997   -1.938534   -0.701124
C     -7.591622    0.878009    0.338422
C     -7.230630   -0.548887    0.456320
C     -5.047415    0.230233   -0.398772
C     -0.511748    0.743504    0.440058
C      7.634804   -1.176182   -0.891256
C     -5.921926   -0.893085   -0.062215
C     -7.593113   -2.046701   -1.125149
I      9.553837   -2.596015   -2.623103
N      0.755022    0.796353    0.216196
N      6.577872   -1.561735   -0.294285
N     -8.172258   -1.452518   -0.151688
N     -6.247486   -1.628192   -1.278721
O     -1.053528    1.023470    1.683250
O      7.602157   -0.066159   -1.703467
O     -8.255945   -3.004562   -1.930724
O      3.829983    2.115244    1.644627
O      4.870293   -0.886771    1.927733
S     -6.164193    1.658432   -0.457664
H     -3.980987    2.205744   -2.133724
H     -2.832258    1.088526   -2.884318
H     -1.747801    2.387702   -1.201947
H     -2.811680    1.807020    0.100915
H     -3.706093   -0.839929   -1.654912
H     -5.012505    0.050098   -2.513627
H     -1.978996   -0.575122   -0.400060
H     -0.882937    0.215008   -1.614167
H      1.140638    1.978037    1.862731
H      1.829204    0.352544    2.008858
H      4.810974   -1.333104   -1.326964
H      5.388213    0.190682   -0.612582
H      2.572814    2.748036    0.244449
H      3.278601    1.201398   -0.153890
H      4.439967   -2.384258    0.704182
H      3.368064   -1.025277    0.463439
H      5.101579    2.201463    3.169987
H      3.686350    1.227265    3.486094
H      6.295781    0.595021    2.008355
H      5.635859    0.011067    3.517664
H      8.697635   -2.848786   -0.070794
H      9.627749   -1.280590   -0.208823
H     -8.448302    0.971267   -0.390100
H     -7.899801    1.382967    1.266719
H     -7.255786   -0.799311    1.560762
H     -4.282467    0.353825    0.423799
H     -5.375493   -1.657543    0.573520
H     -5.658713   -1.832825   -2.110713
H     -0.480862    0.927252    2.509821
H      7.109900    0.759350   -1.460720
H     -9.072091   -3.502287   -1.560484
