60

C     -2.850152    0.525759   -0.290209
C     -2.737350    1.729125    0.594231
C     -4.160544    0.483413   -1.054996
C     -1.397802    1.658220    1.297125
C      1.639862    0.632658   -0.584500
C      6.107711   -0.182826    0.573600
C      2.793284   -0.166673    0.016064
C      5.707195   -0.339668    1.991914
C      3.387394   -2.276820    0.837569
C      3.891609   -1.871152    2.179504
C      9.545248    0.780718   -0.652534
C     -7.183430   -1.363227    0.781125
C     -7.688248   -0.139262    0.057043
C     -5.316760    0.449531   -0.119213
C     -0.269850    1.651498    0.344950
C      8.147021    0.326656   -0.576525
C     -6.622463    0.406952   -0.819833
C     -8.082085   -0.812383   -2.035537
I      9.596627    2.498214   -1.944992
N      0.531213    0.640959    0.350151
N      7.518072    0.280358    0.532045
N     -8.659919   -0.626053   -0.898776
N     -6.703922   -0.474238   -1.947241
O     -0.094370    2.712376   -0.522633
O      7.501551   -0.058791   -1.737483
O     -8.797526   -1.285512   -3.145845
O      2.444554   -1.453244    0.275658
O      4.515622   -0.737832    2.382402
S     -5.371096   -1.082652    0.860717
H     -1.979662    0.529548   -0.976667
H     -2.742093   -0.375852    0.353207
H     -2.722990    2.677466   -0.012099
H     -3.504331    1.760137    1.394443
H     -4.215857    1.438041   -1.621602
H     -4.155485   -0.329296   -1.778907
H     -1.312983    2.597929    1.916037
H     -1.340794    0.822827    2.011246
H      2.011622    1.693567   -0.638958
H      1.309314    0.241254   -1.549496
H      6.017425   -1.056362   -0.070504
H      5.545848    0.672662    0.102013
H      3.564362   -0.179340   -0.801279
H      3.200085    0.420983    0.838113
H      6.564090   -0.934241    2.500033
H      5.867743    0.713757    2.448527
H      2.913669   -3.318813    0.954984
H      4.204766   -2.393179    0.083355
H      4.552427   -2.745631    2.528583
H      2.960026   -1.983459    2.864526
H     10.245260    0.000126   -1.018524
H      9.910503    1.102380    0.356809
H     -7.533480   -1.306481    1.839539
H     -7.431233   -2.305888    0.298370
H     -8.128179    0.607034    0.750053
H     -5.301300    1.345653    0.530866
H     -6.930678    1.442105   -1.095932
H     -5.968298   -0.814088   -2.578252
H      0.334586    2.542824   -1.429225
H      6.498189   -0.145145   -1.832224
H     -9.823995   -1.385534   -3.110814
