80

C     10.440551    0.273651    0.822779
C      9.890682    1.196013   -1.500120
C      5.333295    0.907990   -0.119562
C      0.638543   -3.056076   -0.736084
C     -3.343828   -2.602508   -0.654842
C     -7.612192    0.322561    0.474370
C     -7.538395    1.907309   -1.365456
C     -4.679984   -0.270447    1.332405
C      7.870128   -0.836434    0.961506
C      3.025568   -0.478992    0.861419
C     -0.880836   -0.632745   -0.965427
C     -4.960156    2.942932    0.394090
C      8.281512   -0.083601   -0.227491
C      6.768277   -0.225559    1.728106
C      4.375704   -0.636103    1.451227
C      2.539466   -1.819731    0.377799
C      0.476099   -0.660419   -0.346693
C     -1.929110   -0.142041    0.002368
C     -4.857699   -1.421748   -2.111825
C     -5.895122   -0.395683   -1.751404
C     -6.356306    2.480568    0.679858
C     -3.910778    1.897225    0.546354
C      9.501117    0.444111   -0.295344
C      5.480736   -0.015520    1.032896
C      1.194409   -1.768721   -0.231008
C     -3.757522   -1.448456   -1.090321
C     -3.252748   -0.147022   -0.644126
C     -5.495357    0.702506   -0.854414
C     -6.737292    1.321919   -0.191465
C     -4.385308    0.508296    0.101302
H     10.671412   -0.793965    1.037111
H     11.406724    0.766861    0.636303
H      9.964821    0.692016    1.738433
H     10.866595    0.838666   -1.910615
H      9.125360    1.190414   -2.286715
H     10.045744    2.255577   -1.208003
H      6.195372    1.637869   -0.179329
H      4.457809    1.611712    0.052387
H      5.260674    0.422400   -1.097544
H      0.291904   -2.927514   -1.800340
H     -0.268437   -3.365653   -0.176260
H      1.361044   -3.881951   -0.686583
H     -2.546761   -2.637640    0.088549
H     -3.769520   -3.562511   -1.009002
H     -7.963974    0.785197    1.443659
H     -7.186990   -0.661202    0.662288
H     -8.576862    0.138207   -0.085159
H     -8.227806    2.682825   -0.960456
H     -8.069646    1.111039   -1.921557
H     -6.807743    2.462285   -2.014650
H     -4.938688   -1.331273    1.149229
H     -3.707124   -0.321212    1.909570
H     -5.398501    0.168734    2.022977
H      8.741350   -0.938584    1.679183
H      7.634520   -1.913125    0.717843
H      2.964527    0.308318    0.122266
H      2.359695   -0.155617    1.716440
H     -0.905881    0.118735   -1.811004
H     -1.185890   -1.572800   -1.432665
H     -4.896156    3.436173   -0.593443
H     -4.736420    3.759394    1.142220
H      7.580459    0.013362   -1.053038
H      7.102347    0.758282    2.148384
H      6.584204   -0.846076    2.659426
H      4.518968   -1.316749    2.312387
H      2.467011   -2.492872    1.265143
H      3.305005   -2.265238   -0.287191
H      0.874143    0.277778    0.018060
H     -1.992440   -0.827928    0.897491
H     -1.646444    0.837830    0.434774
H     -5.305061   -2.418501   -2.281712
H     -4.369828   -1.135569   -3.064170
H     -6.752259   -0.956492   -1.302384
H     -6.317552   -0.007755   -2.728168
H     -7.021245    3.373890    0.483783
H     -6.494245    2.283608    1.768484
H     -3.050459    2.204425   -0.115268
H     -3.572180    1.882790    1.599549
H     -3.143247    0.501342   -1.589478
H     -5.151781    1.547221   -1.536805
