64

C      5.181434    2.631881   -1.087274
C      4.784222    1.548571    1.490603
C     -0.630127    0.595367    2.812765
C      4.116448    3.213099   -0.158362
C      2.180071   -3.590706   -0.843781
C      0.938037   -3.894518   -0.071446
C      2.898777   -2.348362   -0.385632
C     -1.147568   -1.766766    2.139034
C     -0.652871   -2.862504    1.519063
C     -2.599952    0.524866    0.475718
C     -1.597616   -0.425968   -0.075454
C     -3.769300    0.467913   -1.734911
C     -5.515678    2.167905   -1.849809
C      3.595963    2.091096    0.707078
C     -0.251798   -0.570323    1.982540
C      0.644699   -2.678270    0.822348
C     -5.066170    0.848140   -2.410362
C     -3.928329    0.253671   -0.262411
C     -0.207370   -0.321616    0.490999
C      1.980764   -1.123833   -0.477575
C     -5.620142    2.034389   -0.381871
C      0.560903   -1.501336   -0.117527
C      3.019781    1.034960   -0.166373
O     -6.070329   -0.079164   -2.197461
O     -6.353246    2.834140    0.253803
O      2.974796    1.190480   -1.417363
O     -4.935924    1.057392    0.308143
O      2.516247   -0.146668    0.355877
H      4.986766    2.849878   -2.138912
H      6.188127    3.054585   -0.840696
H      5.246606    1.525599   -0.973063
H      5.680822    2.194366    1.383619
H      5.044218    0.555932    1.078994
H      4.554836    1.516506    2.573196
H     -0.811432    1.543989    2.267294
H      0.222004    0.869144    3.514663
H     -1.450849    0.323004    3.522731
H      3.323793    3.619392   -0.824044
H      4.580345    4.015288    0.414645
H      2.002608   -3.506129   -1.948900
H      2.880830   -4.437223   -0.707404
H      1.013939   -4.764652    0.584752
H      0.057535   -3.952517   -0.766497
H      3.328525   -2.455665    0.619604
H      3.745675   -2.174214   -1.079077
H     -2.067209   -1.776212    2.669944
H     -1.185901   -3.804744    1.541891
H     -2.762365    0.428592    1.563386
H     -2.353618    1.580959    0.266670
H     -1.970467   -1.486525    0.003448
H     -1.563755   -0.268424   -1.200049
H     -3.430757   -0.481649   -2.236541
H     -3.023074    1.233490   -1.956838
H     -4.681398    2.898457   -2.056289
H     -6.445764    2.546882   -2.308345
H      2.859805    2.519978    1.403506
H      0.743308   -0.936492    2.351576
H      1.506128   -2.616759    1.521645
H     -4.856259    0.899011   -3.499632
H     -4.218739   -0.806346   -0.097618
H      0.295435    0.612613    0.243446
H      2.043459   -0.778251   -1.528427
H      0.083939   -1.858810   -1.053171
H     -6.612841    0.133107   -1.395010
