41

C      5.587317   -0.624316    0.702227
C      4.781061    1.382232   -0.503614
C     -5.124980   -2.353211    0.202184
C     -3.957967   -2.800957   -0.367861
C     -5.238666   -1.030618    0.622087
C     -2.931530   -1.883366   -0.494046
C     -3.297541    2.068624    0.749043
C     -2.119554    1.600540    0.168084
C      2.071644   -0.426387    0.587424
C      0.395201    0.102966   -1.228094
C      4.361891    0.058630    0.078727
C      1.479857    0.577607   -0.342492
C     -4.212071   -0.130126    0.490874
C     -3.038099   -0.572434   -0.078882
C     -4.352052    1.185498    0.908104
C     -1.950024    0.310968   -0.252890
N      3.344578    0.112667    1.072350
O      1.231840    1.761271    0.347077
O     -5.503290    1.661781    1.487370
O     -0.828705   -0.141070   -0.812358
H      6.174272   -1.096759   -0.080964
H      6.153835    0.194060    1.200260
H      5.246920   -1.308085    1.493628
H      4.477815    2.270109    0.070662
H      4.494398    1.483594   -1.590296
H      5.920835    1.432978   -0.526005
H     -5.953612   -3.063864    0.306311
H     -3.832304   -3.832660   -0.712605
H     -6.179342   -0.765949    1.050917
H     -1.991870   -2.172582   -0.937381
H     -3.413688    3.095751    1.075381
H     -1.338077    2.349766    0.059372
H      1.441710   -0.672122    1.445264
H      2.275748   -1.391839    0.043533
H      0.376789    0.768022   -2.178432
H      0.791609   -0.877291   -1.741728
H      4.046627   -0.629326   -0.764989
H      2.329283    0.876700   -1.091505
H      3.594776   -0.194514    2.016858
H      0.982998    1.580242    1.283548
H     -6.297633    1.093471    1.627522
