49

C      3.557018   -0.641477    1.427362
C     -3.498076   -1.780316    1.015553
C     -2.036954   -1.899053    1.380996
C     -3.597784   -1.346334   -0.409019
C     -1.323093   -0.552923    1.161168
C     -2.924209    0.011188   -0.541110
C      3.200046   -1.826212   -0.591729
C      3.919652    0.474020   -0.617669
C      1.723712   -1.386791   -0.740941
C      2.913612    0.412809   -1.746532
C     -0.922223    2.575907    1.124946
C      0.846899    0.923817   -0.648970
C     -2.104431    3.040908   -0.810211
C     -1.196884    2.174218   -0.122143
C     -0.622759    0.897307   -0.799861
C     -1.444144    3.670201    1.661800
C     -1.400443   -0.260985   -0.299947
Cl    -1.281542    4.431729    3.219632
N      3.961728   -0.798315    0.046499
N      1.653849   -0.080846   -1.198643
O     -1.197770   -1.445460   -0.995464
S     -2.489685    4.315208    0.316090
H      2.591862   -1.155474    1.624473
H      4.381767   -1.075694    2.046537
H      3.504022    0.433350    1.733459
H     -3.903503   -2.832180    1.067634
H     -4.047432   -1.112746    1.682760
H     -1.572044   -2.611253    0.675277
H     -1.937388   -2.236577    2.425914
H     -4.648582   -1.292116   -0.775538
H     -3.035287   -2.044309   -1.060975
H     -1.860031    0.239818    1.755829
H     -0.331299   -0.698052    1.595604
H     -3.090242    0.339623   -1.566987
H     -3.307992    0.680961    0.243411
H      3.180970   -2.721006    0.050198
H      3.559419   -2.045232   -1.598179
H      3.600035    1.290119    0.091479
H      4.898966    0.758706   -1.065183
H      1.195773   -1.667695    0.183330
H      1.332711   -2.089174   -1.542670
H      2.762997    1.413714   -2.185457
H      3.253883   -0.269765   -2.533404
H     -0.209523    1.955065    1.746912
H      1.170865    1.888950   -1.192240
H      1.159230    1.201747    0.408265
H     -2.463758    2.907582   -1.827346
H     -0.876769    1.024105   -1.863441
H     -1.045169   -1.191064   -1.951468
