19

C     -0.159866    1.584267    0.571959
C     -1.401706    1.156078    0.472681
C      2.238241    0.689180    0.252383
C     -0.578360   -1.126419    0.091880
C      0.929219    0.714182    0.155181
C     -1.730730   -0.164717   -0.044011
C      0.550567   -0.505304   -0.689029
C      2.779614   -0.495555   -0.380115
O     -2.907742   -0.685275    0.498529
O      3.966693   -0.834715   -0.479779
O      1.696109   -1.228428   -0.883251
H      0.062795    2.561672    0.955151
H     -2.222274    1.849335    0.803936
H      2.837452    1.449402    0.738507
H     -0.794547   -2.118081   -0.323799
H     -0.245217   -1.208156    1.152802
H     -1.944535   -0.119743   -1.159374
H      0.121035   -0.102414   -1.655673
H     -3.196748   -1.415310   -0.077978
