23

C     -3.429941   -0.338884    0.647540
C     -2.916074    0.792379    0.088136
C     -2.651769   -1.485649    0.817293
C     -1.591292    0.798059   -0.319060
C     -1.316285   -1.435240    0.390922
C      1.441468    0.409920    0.440149
C     -0.786777   -0.305572   -0.172699
C      0.618993   -0.294108   -0.606712
C      2.871510    0.439690    0.032321
N      3.451591    1.559266   -0.121181
O      0.739277    0.283078   -1.862265
O      3.549624   -0.737642   -0.173903
H     -4.470991   -0.359019    0.973108
H     -3.521545    1.670201   -0.038800
H     -3.077116   -2.371367    1.262308
H     -1.195569    1.687919   -0.756498
H     -0.753581   -2.353427    0.545298
H      1.080810    1.425521    0.648710
H      1.367855   -0.187917    1.373446
H      0.987328   -1.338133   -0.698964
H      4.451128    1.587938   -0.406153
H      0.597505    1.275972   -1.819679
H      4.553853   -0.722983   -0.243317
