32

C     -2.471522   -1.097174   -0.501863
C     -4.202652    0.296579    0.670020
C      2.853090   -1.101503   -2.063435
C      1.273658    0.783269    1.638186
C     -2.835184   -0.088965    0.277095
C     -0.991462   -1.121343   -0.634290
C      2.871538    0.374843    0.193314
C     -0.586669   -0.473591    0.661076
C     -1.598599    0.652456    0.732781
C      4.024267    0.276244   -0.548114
C      1.713329   -0.276211   -0.213170
N      5.199791    0.949346   -0.116616
N      3.985723   -0.465613   -1.667136
N      1.711049   -1.002598   -1.327008
N      2.574653    1.018784    1.333730
N      0.757256   -0.010191    0.684580
O     -4.413941    1.609632    0.210098
O     -0.496743   -2.409548   -0.769027
O     -1.749440    1.138625    2.021352
H     -3.152066   -1.788184   -0.963854
H     -4.946657   -0.363463    0.182708
H     -4.389243    0.226528    1.762910
H      2.916592   -1.667922   -2.965423
H      0.820699    1.206099    2.519108
H     -0.719560   -0.452040   -1.466106
H     -0.839835   -1.180178    1.475360
H     -1.384170    1.445937   -0.012973
H      5.131893    1.943754    0.222415
H      6.126874    0.482768   -0.127645
H     -4.745144    1.606112   -0.734221
H     -0.553253   -2.637284   -1.741603
H     -1.884272    2.124830    1.949188
