40

C      3.641653    0.949880    0.479651
C     -2.490781    1.283759    0.878259
C     -2.532398    0.537193   -1.436747
C      0.673919   -1.089921    1.355601
C     -1.474534   -2.043970   -0.554437
C      1.524418    2.127938    0.149870
C      0.136652    1.751669    0.651784
C     -2.141251   -1.063260    0.341177
C     -0.064316   -1.716876   -0.910600
C      2.811612   -1.412424   -0.565636
C      2.406237    0.946201    0.024220
C      1.883102   -0.271979   -0.631681
C     -0.339362    0.599422   -0.210307
C     -1.803473    0.342472   -0.098300
C      0.517446   -0.619255   -0.040799
O      3.700950   -1.518025   -1.390463
H      4.284084    0.069755    0.380801
H      4.004394    1.858504    0.958762
H     -1.855463    1.540176    1.736460
H     -2.811502    2.188751    0.330014
H     -3.421302    0.797000    1.242477
H     -1.833604    0.303602   -2.287067
H     -3.428206   -0.121608   -1.485121
H     -2.885088    1.565852   -1.547821
H      0.185366   -0.491360    2.125162
H      1.769305   -1.115175    1.633714
H      0.363699   -2.174020    1.431783
H     -2.060113   -2.076446   -1.517917
H     -1.558078   -3.057350   -0.127549
H      1.976083    2.888652    0.822577
H      1.423083    2.576187   -0.869593
H      0.222832    1.504828    1.706154
H     -0.528476    2.606937    0.478485
H     -1.984844   -1.233629    1.418785
H     -3.255238   -1.169132    0.185373
H      0.066177   -1.428766   -1.985195
H      0.598967   -2.607148   -0.756763
H      2.746949   -2.173947    0.186629
H      1.685182   -0.003959   -1.696078
H     -0.154079    0.949475   -1.271108
