36

C      5.524189   -0.786213    2.033091
C     -3.098095    4.049380   -0.081023
C      4.830364   -1.358332    0.977893
C     -2.188953    2.960220   -0.031099
C      4.050456   -2.006358   -0.224176
C      3.048646   -1.013546   -0.367359
C     -2.387537   -0.698840    0.189868
C     -2.011666   -1.806980   -0.397484
C     -1.815329    1.972497   -0.862598
C     -1.669347    0.385257    0.896160
C     -0.773969   -2.565668   -0.680999
C      1.926806   -0.689849   -1.171240
C     -0.778106    1.076005   -0.153526
C      0.310116   -1.927538    0.232428
C      0.646894   -0.585493   -0.300632
Cl     1.618839   -3.087958    0.342520
O     -0.329977    0.086938   -0.991766
H      6.004448   -0.372724    2.761811
H     -3.690004    4.166277   -0.976600
H     -3.845499    4.048843    0.794545
H     -2.504671    4.996839    0.135049
H     -1.542126    2.898927    0.932397
H      4.204693   -2.656024   -0.763483
H      3.184144   -0.291076    0.517313
H     -3.445317   -0.490427    0.130130
H     -2.881630   -2.321452   -0.784869
H     -2.150686    1.802566   -1.826512
H     -1.100397    0.087349    1.792054
H     -2.386866    1.177854    1.286844
H     -0.464463   -2.620931   -1.718171
H     -0.923356   -3.579043   -0.270781
H      2.058564    0.489540   -1.410295
H      1.704588   -1.168949   -2.075699
H      0.013555    1.654448    0.288471
H     -0.177099   -1.894138    1.216416
H      1.038791    0.068601    0.561323
