40

C      3.508870    1.269332    0.275710
C     -2.699019    1.042732    0.830695
C     -2.387131   -1.370300    0.972503
C      0.760575    0.642799   -1.453046
C     -1.235924   -1.332686   -1.739522
C      1.404012    1.683851    1.397439
C     -0.041357    1.462549    1.175839
C     -2.039027   -0.226401   -1.150559
C      0.036297   -1.637006   -1.017320
C      2.866112   -1.335505   -0.418200
C      2.321160    0.827078    0.651328
C      1.878784   -0.579708    0.318488
C     -0.385858    0.068934    0.710905
C     -1.814484   -0.096067    0.359999
C      0.560292   -0.383399   -0.385357
O      3.133514   -1.191112   -1.608894
H      3.790757    2.277811    0.530435
H      4.219975    0.672918   -0.276973
H     -2.553207    1.966884    0.268424
H     -3.751822    0.686805    0.728750
H     -2.540217    1.158260    1.932830
H     -1.595832   -1.832086    1.630995
H     -3.274179   -1.182625    1.587634
H     -2.643366   -2.124048    0.224369
H      0.415008    1.659929   -1.176871
H      1.849085    0.759328   -1.694374
H      0.290365    0.356908   -2.426642
H     -1.057633   -1.119081   -2.834824
H     -1.836864   -2.289595   -1.753654
H      1.618017    2.772824    1.181478
H      1.671964    1.581827    2.491238
H     -0.535923    2.237883    0.530728
H     -0.559552    1.583138    2.174689
H     -1.948233    0.741956   -1.652098
H     -3.128999   -0.514045   -1.242588
H      0.787866   -1.960119   -1.788121
H     -0.061232   -2.487354   -0.316289
H      3.466950   -2.125430    0.070387
H      1.689583   -1.064958    1.292274
H     -0.179326   -0.602219    1.598195
