46

C     -5.124300    3.839551    0.853071
C      6.394050    1.896436   -0.074788
C     -5.620149    3.485256   -0.390417
C     -4.145262    3.073896    1.462160
C      5.616824    1.367281   -1.089488
C      6.145366    1.642768    1.262009
C     -5.123623    2.358651   -1.011743
C     -3.676418    1.954830    0.805840
C      4.561993    0.560506   -0.722135
C      5.092852    0.839979    1.585086
C      1.415520   -3.342910   -0.191195
C      0.549141   -4.042092   -0.901586
C     -2.213997   -1.525913   -1.229980
C     -4.148261    1.575052   -0.431049
C      4.292119    0.291315    0.608550
C      1.229437   -1.981403    0.309696
C     -0.721164   -3.417600   -1.230122
C      0.002471   -1.295941   -0.174462
C     -3.652517    0.393417   -1.123445
C      3.153499   -0.577423    0.971613
C     -1.148592   -2.245656   -0.426172
O     -1.424049   -3.866763   -2.167565
O     -0.449814   -0.346394    0.741033
O     -4.085937    0.053774   -2.248789
O      2.932097   -0.802930    2.172482
O     -1.618881   -2.668350    0.794188
O     -2.674443   -0.387719   -0.535344
O      2.341773   -1.135435    0.005599
H     -5.489267    4.714290    1.368355
H      7.223429    2.529326   -0.332913
H     -6.391712    4.087754   -0.871552
H     -3.755007    3.352941    2.441260
H      5.831321    1.580251   -2.124800
H      6.804109    2.097382    2.000968
H     -5.523070    2.096983   -1.983503
H     -2.906293    1.349953    1.281582
H      3.938304    0.134300   -1.509223
H      4.890027    0.635485    2.629966
H      2.363000   -3.866672    0.028337
H      0.756224   -5.054359   -1.241499
H     -1.834126   -1.274640   -2.222866
H     -3.071784   -2.241366   -1.312515
H      1.212731   -2.050284    1.437095
H      0.168985   -0.744962   -1.136575
H      0.302559    0.198223    1.084825
H     -2.419165   -3.240788    0.665752
