59

C     -0.191025    1.304992    1.135933
C     -0.305810    1.684713   -1.256871
C      1.353197   -0.681779   -1.739966
C     -0.866748   -1.706728   -0.215086
C      0.519505   -1.526370    0.364735
C     -1.365379   -0.281201   -0.303432
C     -2.374774   -0.077848    0.731459
C      2.231393    0.173124    0.342509
C     -0.159456    0.623540   -0.212755
C      1.021835   -0.258749   -0.349423
O     -3.561832    0.303744    0.450319
O     -2.136013   -0.278589    2.092164
O      3.333074    0.144975   -0.264308
O      2.295365    0.630687    1.654955
C      2.859673   -1.671486    0.812144
C     -2.145334   -2.166233   -0.253950
C      0.329066    2.814891   -0.216853
C      2.620937   -0.609309    0.050962
C      1.542419    0.323082    0.432877
C     -1.239903    1.245489    0.772096
C     -0.202019   -0.811629   -0.776679
C     -1.183118   -1.112987    0.318635
C     -0.365049    1.494814   -0.431287
N     -1.993851    0.021682    0.677974
N      0.549608    0.389318   -0.610771
H     -1.242695    1.701799    1.254524
H      0.436683    2.224393    1.143926
H     -0.011259    0.644206    1.980542
H     -1.373242    1.800436   -1.566613
H      0.006230    2.692411   -0.902014
H      0.261349    1.490185   -2.184237
H      2.107437   -1.510666   -1.648085
H      1.858912    0.095888   -2.345380
H      0.492932   -1.139347   -2.282845
H     -1.524236   -2.311619    0.451684
H     -0.867219   -2.197539   -1.190952
H      1.124023   -2.391457    0.001807
H      0.503757   -1.411623    1.445364
H     -1.866111   -0.164188   -1.291919
H     -2.808318   -0.703331    2.710355
H      3.108424    1.125944    1.993610
H      3.659220   -2.379194    0.546400
H      2.266820   -1.860622    1.718755
H     -3.044389   -1.666539   -0.667535
H     -1.644608   -2.729308   -1.077350
H     -2.444129   -2.901918    0.496896
H     -0.354443    3.595752   -0.634402
H      0.484426    3.047760    0.868963
H      1.276511    2.917340   -0.770127
H      3.227588   -0.455656   -0.834751
H      1.161133    0.141361    1.435482
H      2.020125    1.346935    0.460219
H     -1.957737    2.080845    0.827535
H     -0.581027    1.218779    1.654123
H     -0.822350   -0.671189   -1.713231
H      0.420470   -1.705516   -0.956367
H     -0.704399   -1.603149    1.188665
H     -0.974894    1.542476   -1.371406
H     -2.760743    0.164210   -0.013523
