29

C      3.745293   -0.610562    0.279119
C     -1.911012   -2.291379    0.075687
C      0.061335    2.378895    0.792206
C      2.617181   -0.580345   -0.391811
C      1.651253    0.541550   -0.329804
C     -1.667438    1.190464   -0.434478
C     -0.113654   -0.860264   -0.878992
C     -1.575675   -1.134198   -0.840128
C     -0.538457    1.016715    0.587175
N     -2.421035   -0.029249   -0.540226
N      0.377053    0.005028    0.171329
H      4.087676    0.193938    0.958059
H      4.411320   -1.457445    0.192278
H     -2.926473   -2.654654   -0.179228
H     -1.222468   -3.137367   -0.186574
H     -1.861880   -2.027105    1.135038
H     -0.806778    3.063621    1.024179
H      0.714580    2.446830    1.679772
H      0.524600    2.723666   -0.148509
H      2.372879   -1.420369   -1.032670
H      1.999063    1.389987    0.275918
H      1.402387    0.912974   -1.356919
H     -2.334854    1.985322   -0.018654
H     -1.258950    1.533801   -1.419121
H      0.410693   -1.840995   -0.811750
H      0.145991   -0.393010   -1.860214
H     -1.863684   -1.484577   -1.871767
H     -1.053353    0.697643    1.533423
H     -2.965594   -0.158914    0.330751
