59

C      0.797497   -0.871602    1.268918
C     -0.078591    1.425208    1.349540
C     -1.838493    0.631803   -1.036002
C      0.810949   -0.756291   -1.538678
C     -0.475636   -1.388934   -1.032111
C      1.003923    0.510048   -0.725090
C      2.428945    0.734714   -0.381891
C     -2.030410   -0.873445    0.834533
C      0.145055    0.263745    0.467667
C     -1.098105   -0.319100   -0.146871
O      2.854382    0.804645    0.798444
O      3.367777    0.879456   -1.394231
O     -2.225700   -2.097410    0.883185
O     -2.689888   -0.042257    1.702012
C      3.817908   -0.894678   -0.325310
C     -2.819852   -1.421274    0.002396
C      0.478247    2.464043    0.374783
C      2.638260   -1.126197    0.207255
C      1.771200   -0.036801    0.669640
C     -1.393790    1.270239   -0.673571
C     -0.339477   -1.139562    0.363353
C     -1.486318   -1.148432   -0.622741
C     -0.257130    1.169089    0.334649
N     -1.522482    0.056009   -1.442025
N      0.496817    0.013356    0.004092
H      1.349487   -0.418055    2.106359
H      0.006128   -1.587681    1.637718
H      1.500182   -1.451167    0.651903
H     -1.066107    1.911619    1.260871
H      0.020626    1.112213    2.426595
H      0.739887    2.166205    1.192841
H     -1.514764    1.682595   -0.930251
H     -1.729421    0.376413   -2.110383
H     -2.935181    0.621055   -0.827090
H      0.699914   -0.496144   -2.613819
H      1.668783   -1.440201   -1.469308
H     -1.136474   -1.659077   -1.876116
H     -0.274766   -2.303306   -0.429566
H      0.640537    1.355079   -1.328714
H      4.135499    1.564550   -1.323180
H     -3.076034   -0.334675    2.582714
H      4.233539    0.098124   -0.461304
H      4.426067   -1.727312   -0.653070
H     -3.196163   -2.441561   -0.288511
H     -3.572785   -0.720024   -0.452016
H     -2.878690   -1.270929    1.082297
H      1.253759    2.537019    1.138798
H     -0.285283    3.251312    0.655623
H      0.812508    2.776913   -0.649570
H      2.300049   -2.144791    0.305669
H      2.282414    0.933292    0.434744
H      1.579534   -0.128055    1.761050
H     -2.346677    1.540030   -0.170587
H     -1.094614    2.063436   -1.411538
H     -0.711077   -0.982007    1.396882
H      0.267641   -2.054187    0.345636
H     -1.253276   -1.986406   -1.345217
H     -0.738621    0.995083    1.319173
H     -2.461708    0.054271   -1.900582
