36

C      5.210072    3.221701   -1.554146
C     -3.340241   -0.212226   -0.180759
C     -3.618149    1.123345   -0.369555
C      2.014572   -0.280480   -0.293586
C      2.354739    0.761069   -1.027002
C     -1.632430    0.392725    1.321043
C     -1.964130   -1.993117    0.944453
C     -2.341009   -0.621041    0.668369
C     -1.914071    1.726620    1.128950
C     -0.920708   -2.601209    0.061280
C     -2.908548    2.112151    0.283036
C      0.709592   -0.937324   -0.471805
C      3.653584    1.434578   -0.867322
C     -0.693052   -4.018645    0.535080
Cl    -0.970748    2.941556    1.992628
N      0.347448   -1.937742    0.211915
O     -3.154094    3.462940    0.122841
O     -0.133293   -0.411638   -1.438207
O      4.497436    1.044990   -0.022375
O     -1.654438   -4.831430    0.511056
O      0.516679   -4.476045    0.995688
O      3.979358    2.525818   -1.653738
H      5.082487    4.178976   -1.024188
H      6.014228    2.583522   -1.148994
H      5.495642    3.478155   -2.612453
H     -3.897964   -0.974062   -0.693075
H     -4.403350    1.454862   -1.036400
H      2.689881   -0.669367    0.451677
H      1.641283    1.110918   -1.759703
H     -0.831294    0.147080    2.005009
H     -1.615530   -2.060488    1.995280
H     -2.885191   -2.643066    0.901114
H     -1.168776   -2.646497   -0.994643
H     -3.899479    3.722186   -0.512347
H     -0.921570   -0.850388   -1.844729
H      0.661064   -5.258427    1.593728
