64

C     -6.826493    0.344448   -3.190519
C      8.857157    0.791817   -2.312557
C     -6.960641    0.311870   -1.684268
C     -5.724093    0.998926   -1.107464
C     -5.790257    1.003705    0.413303
C      2.702513   -1.583720    2.749869
C      2.632987   -0.186933    2.249811
C      1.611137   -2.429585    2.176204
C      2.746279   -0.124484    0.726638
C      0.262788   -1.839172    2.584169
C      2.679181    1.322474    0.271174
C     -0.789421   -2.698864    2.023256
C      2.784107    1.462146   -1.206993
C     -4.572239    1.689880    0.955281
C     -1.709327   -2.321389    1.175471
C      4.042634    0.933228   -1.799504
C     -3.273324    1.060292    0.577980
C     -1.790576   -0.943250    0.673184
C      5.287269    1.583671   -1.292221
C     -3.151484   -0.343506    1.071388
C      6.494763    1.001286   -1.930254
O     -4.085937   -1.228004    0.566352
O      6.330714    0.083609   -2.771810
O      7.775692    1.415643   -1.645922
H     -5.769032    0.372664   -3.459474
H     -7.283862    1.281274   -3.599466
H     -7.367615   -0.539566   -3.598344
H      9.206401   -0.106458   -1.752871
H      8.582243    0.473024   -3.336407
H      9.733565    1.492008   -2.393470
H     -7.882864    0.843961   -1.343504
H     -6.929960   -0.739651   -1.330815
H     -4.869525    0.409573   -1.465729
H     -5.657923    2.052389   -1.432637
H     -5.947511   -0.001758    0.829368
H     -6.722512    1.570301    0.737493
H      2.599487   -1.516602    3.877651
H      3.714259   -2.032990    2.593682
H      1.729668    0.384830    2.520884
H      3.476273    0.445352    2.688089
H      1.706481   -2.558696    1.090663
H      1.725972   -3.447174    2.628025
H      1.892828   -0.710392    0.328532
H      3.702438   -0.613529    0.464097
H      0.273565   -1.916920    3.725131
H      0.178799   -0.784732    2.302792
H      3.400117    1.949413    0.833206
H      1.667149    1.687753    0.572678
H     -0.820196   -3.757142    2.334053
H      2.579754    2.498768   -1.482842
H      1.939564    0.856528   -1.648955
H     -4.644045    1.581053    2.082604
H     -4.590292    2.788382    0.737652
H     -2.459354   -3.073612    0.820240
H      3.995404    1.137008   -2.905229
H      4.114577   -0.165041   -1.710350
H     -2.423707    1.687896    0.976873
H     -3.206330    1.042677   -0.551366
H     -0.962111   -0.285549    0.849845
H     -1.883201   -1.018182   -0.462216
H      5.328808    2.661327   -1.428048
H      5.342852    1.370831   -0.189840
H     -3.174561   -0.337043    2.165591
H     -3.829030   -1.561436   -0.340152
