32

C     -2.936899    1.112155   -1.705756
C     -0.428547   -0.142456   -1.734736
C      0.811236   -2.447436    0.088790
C     -2.537830    0.329855    1.929954
C     -3.077493    0.790012    0.748432
C     -1.305387   -0.280752    1.876621
C      2.574945   -0.240817   -0.633947
C     -2.356662    0.613223   -0.409901
C     -1.115157   -0.003352   -0.454620
C      0.724257   -1.127884    0.811842
C     -0.568891   -0.466197    0.723318
C      1.903117   -0.248176    0.563025
C      3.524846    1.206395    0.730415
N      3.568833    0.667374   -0.495926
N      2.494742    0.625597    1.354300
S      4.648073    2.463045    1.376227
H     -2.223528    1.835012   -2.167878
H     -3.859847    1.694128   -1.502552
H     -3.221130    0.286889   -2.371718
H      0.217135    0.762370   -1.946221
H     -1.216271   -0.040043   -2.548198
H      0.047768   -1.091133   -1.952505
H      1.086707   -3.304565    0.773555
H      1.528371   -2.494196   -0.724388
H     -0.234129   -2.715161   -0.230356
H     -3.075735    0.447202    2.885630
H     -4.040048    1.273637    0.748621
H     -0.931555   -0.625128    2.855436
H      2.376661   -0.838111   -1.541610
H      0.877056   -1.410652    1.901294
H      2.175640    0.821189    2.346763
H      4.569720    2.547975    2.758088
