30

C      4.354701   -0.294220    0.599926
C     -0.412428    3.536699    1.343949
C      3.282516   -0.695196   -0.384449
C     -3.403320   -2.372156    0.127861
C     -2.474717   -2.042005    1.093567
C     -3.353905   -1.812835   -1.147811
C     -1.482503   -1.143497    0.788595
C     -2.342624   -0.917031   -1.409730
C     -0.505464    2.651701    0.161452
C     -1.401722   -0.569499   -0.463094
C     -0.323710    0.397815   -0.772601
C      0.986536   -0.268275   -0.953588
O     -0.803130    3.049954   -0.991193
O      1.113608   -1.097474   -1.886542
O      2.062938   -0.004467   -0.131304
O     -0.247049    1.297420    0.340611
H      5.200660   -0.998110    0.479974
H      3.952051   -0.318601    1.645917
H      4.704404    0.731778    0.366801
H     -0.538308    4.593031    1.007763
H     -1.220251    3.230166    2.057465
H      0.574590    3.357798    1.818064
H      3.620296   -0.446533   -1.409032
H      3.137748   -1.793459   -0.348662
H     -4.193616   -3.078973    0.349119
H     -2.526309   -2.491168    2.095218
H     -4.088105   -2.087613   -1.877697
H     -0.769601   -0.907788    1.573489
H     -2.304600   -0.480723   -2.405890
H     -0.598686    0.973260   -1.668178
