29

C     -1.091287    2.940730    0.368976
C      4.362974    0.552576   -0.274205
C      0.487370   -1.193764    0.508218
C      0.593201    0.016696    0.012038
C     -0.717602   -1.958271    0.837220
C     -1.933381   -1.111436    0.699964
C     -1.825841   -0.159045   -0.469749
C     -0.636052    0.778752   -0.281713
C      1.900692    0.623745   -0.260445
O     -0.890407   -3.070492    0.002517
O     -3.059578   -1.919200    0.451365
O     -1.654751   -0.850345   -1.642510
O      1.934144    1.772511   -0.733443
O     -0.934082    1.638183    0.768714
O      3.095561   -0.027324   -0.013572
H     -0.186964    3.341960   -0.102520
H     -1.401393    3.558652    1.253493
H     -1.945836    3.015563   -0.360228
H      4.933965    0.489310    0.674154
H      4.935061   -0.072573   -1.020360
H      4.273468    1.576415   -0.670580
H      1.454517   -1.699098    0.701475
H     -0.656049   -2.289033    1.901743
H     -2.134391   -0.563809    1.639346
H     -2.746686    0.449451   -0.491319
H     -0.559554    1.335827   -1.231925
H     -0.254640   -3.792750    0.224615
H     -2.829792   -2.469261   -0.347403
H     -2.512669   -0.913971   -2.143863
