29

C      4.924260    0.130592    0.562985
C      0.913082    0.724883   -0.509436
C      0.320362   -1.279538    0.593403
C      2.237286    0.547540   -0.166774
C      1.625966   -1.467202    0.938982
C     -3.082438    1.607050    0.498966
C     -0.042750   -0.187159   -0.129782
C      2.612151   -0.568356    0.572686
C     -2.217518    0.385359    0.731647
C     -1.471002    0.071015   -0.539739
C     -2.921574   -1.574226   -0.215956
N     -2.060314   -1.126085   -1.039912
O     -2.312226    2.748691    0.325971
O     -3.657997   -2.751816   -0.460618
O      3.919597   -0.784796    0.935948
O     -3.018766   -0.764313    0.905167
H      5.943323   -0.316723    0.690259
H      4.823416    0.409432   -0.503480
H      4.897740    1.045721    1.198201
H      0.627505    1.605111   -1.090952
H     -0.442262   -1.993389    0.887989
H      2.973763    1.273086   -0.473054
H      1.911924   -2.331719    1.511065
H     -3.731741    1.488132   -0.390110
H     -3.719434    1.779628    1.399078
H     -1.563706    0.541710    1.589286
H     -1.520649    0.923861   -1.224543
H     -2.737034    3.430892   -0.219467
H     -3.230965   -3.567383   -0.856048
