22

C     -2.970988   -0.779278   -1.133963
C     -1.628723    1.274742   -0.023165
C     -1.732790   -1.023776   -0.731762
C      1.075882    0.216357   -0.886988
C      1.035055   -0.352696    1.388259
C      2.450470    0.255063   -0.849595
C      2.412963   -0.326144    1.474822
C     -1.127956   -0.147981    0.264879
C      0.339660   -0.088333    0.231203
C      3.129419   -0.016889    0.335578
Cl     4.879180    0.032956    0.381007
H     -3.508585    0.063923   -0.715996
H     -3.486716   -1.388508   -1.873168
H     -0.855296    1.996086    0.309251
H     -2.601075    1.442206    0.481906
H     -1.707448    1.354460   -1.130268
H     -1.246549   -1.885400   -1.189350
H      0.540693    0.425247   -1.799369
H      0.513597   -0.603706    2.321376
H      3.038656    0.498617   -1.743488
H      2.944340   -0.538661    2.401073
H     -1.493790   -0.408286    1.258641
