62

C      8.486052    2.883686   -0.076912
C      4.279749   -1.868008    0.541740
C      7.182889    3.047740   -0.533545
C      8.978394    1.631607    0.194774
C      5.253472   -0.722913    0.646480
C      3.242220   -1.677475   -0.501669
C     -7.953444    0.813789    1.634080
C     -8.651931    1.726718    0.868957
C      6.432287    1.920251   -0.694774
C      8.215175    0.490782    0.030454
C      6.002576   -0.489040   -0.644412
C     -6.943045    0.068783    1.084956
C     -8.338589    1.899364   -0.463730
C      2.385010   -0.451321   -0.284067
C     -4.680410   -1.358231   -0.741889
C     -5.831627    0.204401   -2.329300
C     -0.512276   -0.655615   -0.040753
C      6.921704    0.654879   -0.422974
C     -5.684913   -0.360261   -1.065330
C     -6.611491    0.227397   -0.252860
C     -7.326613    1.155217   -1.018992
C     -3.416115   -0.835325   -0.110677
C      1.629084   -0.469164    0.981500
C     -1.265106   -1.952015    0.041940
C     -3.589445   -0.151505    1.176359
N     -3.522177    1.123308    1.351468
N     -6.817527    1.105489   -2.273567
N      0.365721   -0.558822    1.059992
N     -2.518806   -1.966846    0.006877
O      2.299917   -0.385341    2.224732
O     -0.561858   -3.148316    0.156849
O     -3.848038   -0.922583    2.311199
H      9.066688    3.791998    0.044396
H      4.871446   -2.808841    0.389411
H      3.792949   -1.990915    1.524975
H      6.757315    4.015221   -0.758655
H      9.999831    1.537430    0.549770
H      4.789003    0.227911    0.953299
H      6.012313   -0.973530    1.416713
H      3.625114   -1.646174   -1.532142
H      2.576378   -2.589852   -0.465027
H     -8.197526    0.670610    2.696063
H     -9.459807    2.322382    1.306869
H      5.402867    2.045298   -1.055019
H      8.574179   -0.506142    0.235665
H      6.592883   -1.403308   -0.916038
H      5.334133   -0.209630   -1.483516
H     -6.407543   -0.649865    1.674024
H     -8.869094    2.613150   -1.103803
H      1.783651   -0.216286   -1.156173
H      3.125435    0.418433   -0.206618
H     -4.344521   -1.937314   -1.653158
H     -5.064534   -2.157548   -0.048166
H     -5.235988   -0.063515   -3.179919
H     -1.248084    0.188611    0.022915
H     -0.097230   -0.626745   -1.045871
H     -3.007040   -0.089140   -0.857039
H     -3.328296    1.740386    0.517701
H     -7.145733    1.682331   -3.070265
H      1.804882    0.037683    2.992551
H     -1.034621   -3.926964    0.621068
H     -4.269886   -0.476305    3.133122
