42

C      3.748106   -0.460985    1.264691
C      2.978082   -0.689811   -1.110521
C     -2.042830    2.567053    0.314652
C     -3.015515   -2.137986    0.748098
C      0.315347    2.222902    0.960228
C      1.621227    1.550610    0.511327
C     -2.354045   -1.127522   -1.449319
C     -1.758777    0.228525   -1.627827
C      2.596953   -0.756301    0.349076
C     -0.707357    1.923862   -0.081639
C      1.373898    0.076122    0.640609
C      0.271203   -0.387975   -0.249718
C     -1.045518   -0.604588    0.467544
C     -1.894167   -1.669328   -0.134198
C     -0.855548    0.498817   -0.447358
O     -1.066775   -2.790258   -0.364675
H      3.994096    0.597809    1.327388
H      4.617732   -1.036369    0.905302
H      3.485041   -0.913349    2.264646
H      2.924019   -1.674043   -1.618208
H      4.018673   -0.298715   -1.247187
H      2.235367   -0.040535   -1.619069
H     -2.511960    2.063484    1.159580
H     -1.767523    3.613706    0.625482
H     -2.696893    2.691131   -0.572820
H     -2.561123   -2.557715    1.670804
H     -3.477981   -3.023872    0.225820
H     -3.757829   -1.367365    0.979972
H      0.038917    1.793773    1.946529
H      0.502028    3.300202    0.998589
H      1.885563    1.884313   -0.490589
H      2.377520    1.841154    1.294118
H     -1.999561   -1.771716   -2.302356
H     -3.469387   -1.139308   -1.539165
H     -2.607465    0.969875   -1.665045
H     -1.223263    0.340558   -2.594109
H      2.299391   -1.821848    0.542886
H     -0.398378    2.484737   -1.013446
H      1.133493   -0.106816    1.729487
H      0.537194   -1.064669   -1.103317
H     -1.091351   -0.477795    1.565421
H     -0.650603   -2.729764   -1.261683
