34

C     -1.355869   -0.869044   -2.782732
C     -3.661125    1.349091    1.015896
C      4.523951    1.782789    1.058295
C     -3.613468    1.483639   -0.349976
C     -3.028555    0.276349    1.580457
C      3.916057    1.679807   -0.164592
C      4.073960    0.990100    2.101712
C     -2.936800    0.544562   -1.109223
C     -2.356999   -0.654774    0.821677
C      2.876962    0.806787   -0.359207
C      3.037501    0.116951    1.913960
C     -1.598694   -1.491290   -1.418658
C     -2.296893   -0.537251   -0.559382
C      2.435717    0.022297    0.683531
C      1.341118   -0.882714    0.438801
N     -0.306981   -1.881585   -0.918818
N      0.748720   -1.002370   -0.700084
O      0.882196   -1.682176    1.478282
H     -2.305915   -0.823337   -3.351490
H     -0.591170   -1.439380   -3.354713
H     -1.031095    0.182327   -2.616262
H     -4.175747    2.051833    1.668182
H      5.346729    2.470306    1.222625
H     -4.114281    2.331867   -0.789914
H     -3.056030    0.152740    2.668712
H      4.284938    2.316146   -0.983307
H      4.582347    1.103083    3.051375
H     -2.938837    0.710653   -2.192935
H     -1.852962   -1.506849    1.253852
H      2.405922    0.739350   -1.340409
H      2.699093   -0.496561    2.745935
H     -2.259862   -2.363955   -1.566112
H     -0.143839   -2.885496   -0.704471
H      0.469910   -2.593896    1.327679
