38

C      5.366858    0.561979    0.633757
C     -2.588350    1.573765   -0.923805
C     -2.924153    1.407610    1.483355
C     -0.569996   -0.587139   -1.601406
C     -2.190187   -1.859933    0.131465
C      2.997142    0.779842    1.297563
C      3.447899   -0.405435   -0.677266
C      1.642226    0.552071    1.115828
C      2.086136   -0.633214   -0.855293
C     -3.060138   -0.640180    0.187288
C     -0.775502   -1.684180    0.558939
C      3.911941    0.298735    0.395372
C      1.144475   -0.159596    0.036907
C     -2.334450    0.659755    0.272600
C     -0.305816   -0.399226   -0.139100
O     -0.990030    0.618085    0.468573
H      5.681227    0.196533    1.625584
H      5.535413    1.671215    0.543093
H      5.948371    0.067365   -0.148621
H     -1.628183    1.803882   -1.455575
H     -3.322499    1.164778   -1.629886
H     -2.977261    2.582719   -0.613112
H     -3.344623    0.654394    2.209059
H     -2.232200    2.109337    1.937751
H     -3.823210    1.939596    1.105888
H     -1.625772   -0.557328   -1.891647
H     -0.200269   -1.603831   -1.893805
H      0.068653    0.148895   -2.146473
H     -2.173392   -2.260251   -0.922456
H     -2.598761   -2.723254    0.741017
H      3.358629    1.336218    2.153749
H      4.149412   -0.789859   -1.395476
H      0.914795    0.926653    1.834312
H      1.773068   -1.192764   -1.704146
H     -3.785934   -0.811557    1.037636
H     -3.718062   -0.612801   -0.707057
H     -0.183280   -2.521701    0.121815
H     -0.674176   -1.611175    1.653212
