34

C     -3.419088    1.623927    1.084805
C     -3.874120    0.485805   -1.049692
C     -3.528394   -0.870476    0.954974
C      5.315465    0.221336   -0.152905
C      4.485799    1.313122    0.059459
C      4.798948   -1.070077   -0.158722
C      3.146848    1.101815    0.264001
C      3.441758   -1.272092    0.049459
C      1.184170   -0.354841    0.483520
C      2.633458   -0.176102    0.258618
C      0.473553   -0.314735   -0.858028
C     -0.990882   -0.490360   -0.687616
C     -3.088222    0.391770    0.258591
O      0.994235   -1.373045   -1.612915
O     -1.624183   -1.475998   -1.177346
O     -1.701582    0.431796    0.019028
H     -4.359027    1.498495    1.655487
H     -2.611312    1.876543    1.802670
H     -3.474887    2.494026    0.379220
H     -3.989286   -0.534464   -1.466677
H     -4.866533    0.904888   -0.785328
H     -3.321915    1.160999   -1.751409
H     -4.166003   -0.654796    1.841220
H     -4.160739   -1.512856    0.286627
H     -2.689548   -1.495784    1.292251
H      6.379101    0.381062   -0.315973
H      4.917757    2.305373    0.058195
H      5.458682   -1.906687   -0.325381
H      2.500532    1.954550    0.429598
H      3.052005   -2.278449    0.042825
H      0.944698   -1.302472    0.996480
H      0.804551    0.468468    1.134030
H      0.687648    0.670476   -1.314625
H      0.646514   -2.201214   -1.181472
