42

C      3.929228    0.306780   -0.476319
C      2.622504   -1.773667    0.008726
C     -1.430852    2.499970   -0.435410
C     -3.426182   -1.195293   -0.831438
C      0.628144    2.172174    0.952563
C      1.413985    1.782368   -0.255651
C     -1.921382   -1.846314    0.964171
C     -1.803136   -0.475831    1.544309
C      2.695141   -0.274434    0.160024
C     -0.807619    1.752301    0.723771
C      1.422958    0.297480   -0.455377
C      0.262558   -0.431026    0.074525
C     -1.061337   -0.394146   -0.717445
C     -2.001571   -1.543553   -0.534766
C     -0.876010    0.280007    0.582264
O     -1.563180   -2.660873   -1.263736
H      3.804985    0.563894   -1.530459
H      4.723341   -0.489354   -0.423617
H      4.332945    1.152124    0.140428
H      3.639073   -2.165120   -0.198596
H      1.914053   -2.102825   -0.776552
H      2.296330   -2.243495    0.956893
H     -1.351997    3.581993   -0.191631
H     -0.948926    2.307253   -1.390996
H     -2.509016    2.252213   -0.439609
H     -3.606072   -0.818915   -1.844659
H     -3.811301   -0.529578   -0.042618
H     -4.018494   -2.149242   -0.731336
H      0.732585    3.228426    1.202105
H      0.999865    1.572366    1.807542
H      1.088171    2.299137   -1.179827
H      2.471596    2.141164   -0.084132
H     -2.897639   -2.281578    1.308756
H     -1.111044   -2.528635    1.213597
H     -2.764886    0.033595    1.615443
H     -1.240425   -0.501286    2.514481
H      2.691455    0.022950    1.226883
H     -1.372629    2.057036    1.630489
H      1.532491    0.122577   -1.564892
H      0.472411   -1.453193    0.508721
H     -1.065309    0.143734   -1.678333
H     -2.084811   -2.711183   -2.088297
