43

C     -4.460801   -1.123215    0.843191
C     -4.428298    1.055923   -0.249358
C      0.145547   -0.465344    1.777163
C     -1.959908   -0.138264   -0.083581
C      3.593876   -0.300982   -1.481064
C      2.247428   -0.322806   -1.131371
C     -2.955160   -0.701214   -1.073325
C     -0.527074   -0.355037   -0.560555
C      4.092082    0.837045    0.562261
C      5.966996    0.334211   -0.950016
C      4.515892    0.279472   -0.633134
C      1.805095    0.227485    0.055418
C      2.752477    0.798774    0.878333
C     -4.337154   -0.433791   -0.505296
C      0.379312    0.228721    0.472529
O      6.617106   -0.808360   -0.450182
O      2.329502    1.352161    2.065428
O     -5.343497   -0.876327   -1.336379
O      0.020119    1.586011    0.616154
H     -3.902708   -2.092505    0.835988
H     -5.545998   -1.369181    1.021827
H     -4.124006   -0.496370    1.677252
H     -3.993006    1.249451    0.755384
H     -5.506392    1.348918   -0.163363
H     -3.943997    1.659441   -1.025546
H      1.101378   -0.623783    2.292009
H     -0.323281   -1.482667    1.628563
H     -0.574477    0.087851    2.423315
H     -2.093194   -0.706099    0.860264
H     -2.112772    0.940249    0.024761
H      3.916190   -0.738286   -2.415702
H      1.498743   -0.777328   -1.787574
H     -2.862562   -0.094756   -2.000982
H     -2.780678   -1.752440   -1.306219
H     -0.298042   -1.429985   -0.678258
H     -0.396419    0.110307   -1.566568
H      4.831428    1.296472    1.230600
H      6.457968    1.202932   -0.485699
H      6.113949    0.297362   -2.057092
H      6.841241   -0.670316    0.522191
H      2.997178    1.775665    2.685509
H     -5.725707   -1.706726   -0.966673
H     -0.028374    1.951163   -0.320202
