38

C      5.265699   -1.178131   -0.765681
C     -3.192558   -0.622571   -1.381112
C     -2.868205   -1.717596    0.751881
C     -0.348945    1.588119   -0.728629
C     -1.878091    1.327891    1.550451
C      2.823392   -1.267315   -1.405197
C      3.468487   -0.067190    0.547458
C      1.526505   -0.893479   -1.140604
C      2.145408    0.316351    0.820898
C     -2.852908    0.724731    0.602669
C     -0.563692    0.553021    1.537312
C      3.810578   -0.840927   -0.537220
C      1.176065   -0.111742   -0.048906
C     -2.400133   -0.519429   -0.072703
C     -0.224403    0.325719    0.116074
O     -1.076573   -0.630232   -0.400290
H      5.787373   -0.183994   -0.603364
H      5.448553   -1.452063   -1.805137
H      5.647508   -1.888756   -0.033130
H     -2.601501   -0.131313   -2.176179
H     -3.392352   -1.688563   -1.600761
H     -4.181667   -0.145299   -1.217120
H     -2.904188   -1.454597    1.847146
H     -2.314013   -2.634157    0.547706
H     -3.944637   -1.930800    0.495603
H     -0.145466    2.481738   -0.113003
H      0.455212    1.599133   -1.522607
H     -1.291677    1.644925   -1.297737
H     -2.200671    1.345976    2.612778
H     -1.628727    2.381096    1.279720
H      3.122560   -1.878091   -2.265866
H      4.227075    0.277029    1.254050
H      0.775602   -1.272142   -1.849318
H      1.979023    0.926381    1.701377
H     -3.756016    0.450638    1.237813
H     -3.289399    1.449869   -0.123093
H      0.124496    1.100354    2.168144
H     -0.727713   -0.439635    2.016578
