39

C     -2.980742    0.571177    1.004951
C     -2.302063   -1.191147    2.563548
C      2.514400    1.366702    0.556533
C      2.690142   -0.650585   -1.691542
C      0.116900    2.116751   -1.513751
C      0.322248    0.940586   -2.461400
C      0.244927   -1.446569    1.116128
C      1.413399   -1.559165    0.192485
C     -1.785529   -0.097643    1.649461
C      1.509686    0.824903   -0.072524
C     -0.952710   -0.764745    0.552819
C      0.145871    1.390179   -0.159299
C      0.222250   -0.318023   -1.625459
C     -0.714030    0.202957   -0.523860
C      1.488210   -0.449137   -0.826521
H     -3.246358   -0.010136    0.096645
H     -2.788510    1.603228    0.697557
H     -3.856778    0.550437    1.715569
H     -2.180781   -2.209942    2.102087
H     -3.378338   -1.088972    2.775086
H     -1.788337   -1.166126    3.568136
H      3.473367    0.866810    0.556670
H      2.418872    2.293651    1.073863
H      2.554245   -1.529680   -2.355016
H      2.957372    0.263867   -2.285025
H      3.611752   -0.875052   -1.102424
H      0.919329    2.866680   -1.588148
H     -0.885366    2.576437   -1.618446
H      1.230729    1.015448   -3.059690
H     -0.589719    0.928529   -3.123828
H      0.008840   -2.482861    1.480224
H      0.554959   -0.888618    2.028293
H      2.374484   -1.530450    0.758737
H      1.432848   -2.517738   -0.369920
H     -1.180656    0.633547    2.222197
H     -1.625997   -1.562915    0.146721
H     -0.186937    1.977820    0.662714
H     -0.129531   -1.191898   -2.126197
H     -1.632448    0.541696   -1.017376
