39

C      2.806283   -1.146912    0.469260
C      3.559932    0.895463   -0.776070
C     -1.618253   -2.238371   -0.601954
C     -3.013984    0.460505   -0.964367
C     -1.497386   -0.473364    2.211176
C     -1.933832    0.928709    1.759536
C      0.683270   -0.140924   -1.430499
C     -0.664787    0.498022   -1.800595
C      2.555165    0.299772    0.186071
C     -1.260363   -1.072902   -0.085335
C      1.126874    0.605340   -0.186832
C     -0.459752   -0.855709    1.141545
C     -1.142846    1.202288    0.528980
C      0.170015    0.496607    0.925983
C     -1.574651    0.288068   -0.607648
H      3.877706   -1.357793    0.186198
H      2.130620   -1.839718   -0.035085
H      2.755085   -1.388247    1.561614
H      3.106413    0.940935   -1.782660
H      3.752235    1.963773   -0.490857
H      4.505184    0.316413   -0.765219
H     -2.214511   -2.269588   -1.519561
H     -1.360653   -3.188088   -0.176820
H     -3.517022    1.261435   -0.348377
H     -3.620035   -0.444445   -0.882812
H     -3.061230    0.866342   -2.014541
H     -2.391440   -1.115339    2.096922
H     -1.063223   -0.470381    3.210060
H     -3.017646    1.002431    1.642782
H     -1.577753    1.624623    2.555384
H      1.348316    0.048653   -2.280117
H      0.525994   -1.212233   -1.235341
H     -0.496176    1.564058   -2.021619
H     -1.054380   -0.059496   -2.662532
H      2.723681    0.840024    1.165105
H      1.136567    1.693558   -0.506491
H      0.195477   -1.645663    1.433138
H     -1.001981    2.228820    0.251342
H      0.583084    0.893335    1.850237
