88

C     -4.338804    2.716502   -0.818174
C     -0.222676    3.956241   -1.648724
C      6.409261   -0.282691   -2.409873
C      6.805085   -1.505022   -0.273004
C      5.776982    0.763755   -0.274178
C     -1.370302   -3.310520    0.584088
C     -2.153228   -2.114838    3.228510
C      0.704483   -2.398588    2.493705
C      3.962532   -2.418979    0.360193
C      4.008273   -2.304919   -2.659892
C     -3.978000    1.918331    0.264241
C     -7.775541   -2.844887    0.703868
C     -7.064193   -3.214115   -0.523011
C     -7.270739   -1.837581    1.446145
C      0.459435    5.575979    0.743201
C     -2.534516    1.966251    0.597560
C      0.599987    4.101612    0.747335
C     -5.926336   -2.522030   -0.897227
C     -6.110924   -1.186981    1.064872
C     -4.018745   -1.061241   -0.117371
C     -2.860549   -0.643265   -0.093530
C      1.040958    0.222928    0.361564
C      0.392576    1.230204    0.950828
C     -0.477014    6.338478    1.192828
C     -0.607384   -0.654302   -1.188256
C      1.797804   -0.542723   -1.695794
C     -0.289693    3.479752   -0.182446
C     -5.461303   -1.558298   -0.132981
C     -1.579556    1.311007   -0.211312
C      5.841990   -0.539763   -1.023400
C      0.567745    0.207678   -1.102233
C     -1.535472   -0.190509   -0.072026
C     -0.103188    1.938472   -0.247915
I     -2.172508    5.630396    2.174820
O      2.963050   -0.074239   -1.021825
O      0.518710    1.501596   -1.343502
O     -0.954964   -0.429017    1.244203
Si    -0.954938   -1.992788    1.765799
Si     4.180409   -1.278003   -1.156931
H     -3.430848    3.233225   -1.184019
H     -5.209573    2.814125   -1.217552
H     -0.580359    4.951943   -1.733436
H      0.926073    3.912325   -1.912211
H     -0.694495    3.225167   -2.292256
H      7.142209   -1.066574   -2.635871
H      5.539865   -0.330946   -3.129094
H      6.844707    0.729894   -2.451156
H      7.794753   -1.349218   -0.683886
H      6.514776   -2.541350   -0.539914
H      6.752304   -1.344300    0.811989
H      5.315588    0.648481    0.715097
H      5.095980    1.450102   -0.855742
H      6.783754    1.224721   -0.187021
H     -1.946692   -4.156418    1.118547
H     -1.962679   -3.090176   -0.287185
H     -0.456110   -3.885986    0.212740
H     -3.125799   -1.667197    2.989365
H     -2.249945   -3.196348    3.562994
H     -1.648555   -1.600055    4.070161
H      0.652016   -3.008469    3.432195
H      1.344315   -3.021314    1.787683
H      1.324036   -1.490155    2.718333
H      3.212930   -3.191058    0.170855
H      3.563001   -1.760575    1.237940
H      4.928849   -2.761851    0.742120
H      4.020135   -1.691492   -3.556838
H      3.158114   -3.017337   -2.592802
H      4.921857   -2.969310   -2.721295
H     -4.774388    1.464193    0.777262
H     -8.619022   -3.427387    0.958134
H     -7.480685   -3.950821   -1.125202
H     -7.741614   -1.534184    2.420760
H      1.345378    6.156175    0.309195
H     -2.298623    2.862385    1.189519
H     -2.578397    1.189592    1.559024
H      1.628808    3.791263    0.826072
H      0.173813    3.805928    1.818136
H     -5.369932   -2.815840   -1.827137
H     -5.740951   -0.400508    1.635295
H      1.732965   -0.359533    0.900142
H      0.249464    1.510601    1.978401
H     -0.423303    7.457482    1.067730
H     -1.186927   -0.656378   -2.076407
H     -0.183607   -1.697657   -1.037945
H      1.686434   -1.591082   -1.791269
H      1.978780   -0.031208   -2.748448
H     -1.337038    3.793412    0.066686
H     -1.860071    1.429829   -1.319845
