24

C      2.534015    0.614092    0.433001
C      0.493540    0.103203   -1.466816
C      1.542334   -0.480192    0.654569
C     -0.712589   -1.278337    0.211451
C     -2.025731   -1.082307   -0.493743
C      0.211234   -0.089224    0.010359
N     -0.314857    1.080718    0.640898
O     -2.583983    1.874795    1.699981
O     -2.237891    2.266270   -0.684461
O     -2.809191   -0.132668    0.126619
S     -2.003114    1.285482    0.429785
H      2.064899    1.610820    0.522513
H      3.052950    0.470688   -0.539579
H      3.347563    0.589036    1.204280
H     -0.395536    0.408019   -2.033458
H      1.232522    0.927934   -1.555736
H      0.891990   -0.856679   -1.838841
H      1.913329   -1.408868    0.139524
H      1.427466   -0.632831    1.745739
H     -0.897940   -1.353147    1.298287
H     -0.194214   -2.162497   -0.168216
H     -2.579055   -2.051715   -0.427970
H     -1.932016   -0.844140   -1.551047
H     -0.025724    1.141548    1.642858
