67

C     -7.612017   -0.214948   -1.032181
C     -6.971863    0.201652    1.260858
C      2.904403    1.916462    1.187942
C     -2.095896   -0.246927    1.525296
C      1.981619   -1.237674    1.169221
C     -4.319714   -0.002544   -0.126755
C     -0.932432   -2.238101   -1.355746
C     -5.454833    0.820343   -0.705176
C      0.333353   -2.038053   -0.508763
C      0.989161    2.013928   -0.373444
C     -0.410318    1.546368   -0.086016
C     -2.977843    0.505241   -0.592250
C     -2.077887   -1.740799   -0.496745
C      5.817117    1.337867   -1.145420
C      2.928580   -0.444019   -1.018753
C     -6.719457    0.248423   -0.193975
C      1.793767    1.130053    0.615869
C      5.322690    0.309684   -0.464522
C     -0.541622    0.228957   -0.232402
C      0.592927   -0.550837   -0.627872
C      4.343553   -0.652603   -1.012610
C      6.740537    2.074987   -0.305960
C      5.943820    0.329354    0.872474
C     -1.914397   -0.361555    0.027729
C      1.981766   -0.202337    0.052508
O      4.718974   -1.972437   -0.596968
O      7.367858    3.102584   -0.685759
O      6.731774   -0.853078    1.043806
O      6.770641    1.441869    0.906491
H     -8.533683   -0.631456   -0.653416
H     -7.439674   -0.186124   -2.087972
H     -6.505678   -0.715792    1.723711
H     -8.071316    0.190593    1.456488
H     -6.554468    1.059517    1.809786
H      2.392990    2.882238    1.571278
H      3.664428    2.303591    0.524411
H      3.225754    1.452210    2.131783
H     -2.751451   -1.056536    1.922110
H     -2.617442    0.715910    1.760421
H     -1.142324   -0.223036    2.044888
H      2.022948   -2.268077    0.839905
H      1.037721   -1.086023    1.720617
H      2.795529   -1.013524    1.911848
H     -4.535534   -1.044460   -0.307422
H     -4.415575    0.136423    0.992729
H     -1.111109   -3.282914   -1.594092
H     -0.893621   -1.570286   -2.242551
H     -5.317045    1.883354   -0.373382
H     -5.395544    0.734249   -1.811886
H      1.137069   -2.655791   -0.946642
H      0.028417   -2.355980    0.509008
H      1.248883    1.809017   -1.408291
H      1.178462    3.042647   -0.084660
H     -1.135601    2.244804    0.193551
H     -2.944859    1.561386   -0.328111
H     -2.947074    0.325797   -1.692907
H     -2.137981   -2.444627    0.377836
H     -2.986654   -1.924892   -1.106891
H      5.536567    1.554340   -2.186335
H      2.746404    0.426776   -1.777384
H      2.503737   -1.296142   -1.705995
H      1.068084    0.999142    1.519737
H      0.737118   -0.389887   -1.743063
H      4.658112   -0.734161   -2.122880
H      5.178060    0.364973    1.642021
H      4.446176   -2.110109    0.340683
H      6.595910   -1.149008    1.958513
