41

C     -4.357191    0.503327    0.689481
C      0.887937   -1.875073   -1.247700
C      1.082313    0.249253   -2.416569
C      4.281645    0.571106    1.546638
C      3.787372    1.498745    0.649120
C      3.666143   -0.659701    1.571381
C      2.721169    1.198142   -0.182822
C      2.604553   -0.953509    0.739241
C     -2.675130    0.594569   -1.076473
C     -1.465666   -0.246187   -1.391381
C     -2.141818   -0.458040    1.147180
C     -2.869095    0.648986    0.400882
C      2.103431   -0.033267   -0.159723
C     -0.354619    0.112718   -0.450267
C     -0.657206   -0.391771    0.911707
C      0.944640   -0.377668   -1.046704
O     -0.126036    0.490657    1.866029
H     -4.938438    0.445689   -0.264115
H     -4.762929    1.366818    1.251451
H     -4.563842   -0.461423    1.206432
H      1.965022   -2.216988   -1.265174
H      0.408055   -2.431720   -0.451451
H      0.507663   -2.135422   -2.262272
H      0.584808    1.223389   -2.493083
H      0.761690   -0.465745   -3.193410
H      2.183010    0.381929   -2.600860
H      5.124100    0.808364    2.202543
H      4.279558    2.470710    0.634096
H      4.044523   -1.396264    2.267963
H      2.338507    1.943261   -0.888198
H      2.111137   -1.930029    0.759825
H     -3.575704    0.149989   -1.571742
H     -2.477250    1.623716   -1.489593
H     -1.705905   -1.341765   -1.242275
H     -1.197639   -0.075420   -2.455591
H     -2.598155   -1.436113    0.859797
H     -2.364589   -0.262805    2.234477
H     -2.566147    1.637567    0.828190
H     -0.336166    1.242085   -0.368244
H     -0.240169   -1.399263    1.143128
H     -0.413579    1.387152    1.622174
