42

C      4.858920   -0.644178   -0.213766
C      4.089563    0.388123   -0.933024
C     -5.282476   -0.484272    0.801524
C     -5.281847    0.177890    2.010118
C     -4.144264   -0.514131    0.026608
C     -4.114709    0.796893    2.401602
C      1.412563    0.403703    1.169306
C     -1.193543   -0.308584   -1.465720
C      1.982560    1.469865   -1.465768
C      1.366954   -2.384269   -1.302594
C      2.800920    0.455049   -0.769241
C     -2.967541    0.105340    0.412880
C      2.109823   -0.492180    0.127970
C     -1.716786    0.214605   -0.179249
C      0.922149   -1.154416   -0.593977
C     -2.975921    0.766271    1.624927
C      0.306457   -0.149531   -1.508097
C      0.476751    1.291877    0.399373
C     -0.961633    0.959328    0.702530
N     -1.724690    1.275260    1.762319
N      0.602989    1.199403   -1.033167
O      1.082298   -3.499338   -0.895605
H      4.671963   -1.621394   -0.725537
H      4.653823   -0.683799    0.871249
H      5.946544   -0.448066   -0.316441
H      4.625169    1.088136   -1.600451
H     -6.185291   -0.976986    0.473341
H     -6.185944    0.209366    2.639788
H     -4.106232   -1.031854   -0.942721
H     -4.114143    1.315607    3.348321
H      2.235201    0.971064    1.665549
H      0.898192   -0.279512    1.871276
H     -1.647610    0.230574   -2.339682
H     -1.446364   -1.400823   -1.547050
H      1.985939    1.306303   -2.557211
H      2.248356    2.500384   -1.215114
H      1.961080   -2.325698   -2.207507
H      2.721208   -1.262921    0.572343
H      0.188792   -1.437220    0.188958
H      0.677331   -0.202780   -2.557100
H      0.696785    2.343734    0.677155
H     -1.473334    1.833182    2.621885
