67

C      5.331109    2.452646    0.203278
C      6.283830    0.435037    1.126514
C     -3.121622   -0.828171    2.431092
C      2.560264   -2.268730    1.059252
C     -1.948568   -2.138294   -0.174719
C      4.158366   -0.666870   -0.861960
C      0.753393   -1.167185   -2.081007
C      5.120979    0.462173   -1.145530
C     -0.134751   -0.113643   -1.548403
C     -0.759843    0.085523    2.468719
C      0.545824   -0.524406    2.056716
C      2.920843   -0.141877   -0.175328
C      1.487380   -1.985924   -1.090462
C     -4.430799    2.844003   -1.688570
C     -2.941081    0.047198   -0.271102
C      5.566392    1.164102    0.059709
C     -1.792267   -0.807535    1.796608
C     -4.344852    1.968618   -0.703765
C      0.716660   -0.635423    0.742497
C     -0.428894   -0.126156   -0.092393
C     -3.070404    1.493476   -0.036708
C     -5.825308    3.032137   -2.039526
C     -5.706394    1.515399   -0.379377
C      1.933249   -1.216378    0.132316
C     -1.754074   -0.677128    0.294052
O     -2.050031    2.244761   -0.677749
O     -6.307303    3.778127   -2.924159
O     -5.907509    0.145481   -0.595090
O     -6.564470    2.225873   -1.209981
H      4.803940    3.014570   -0.568283
H      5.634440    3.030043    1.070731
H      6.554789    1.110256    1.978214
H      5.670608   -0.381119    1.578507
H      7.256735    0.010993    0.776452
H     -2.943666   -0.635343    3.533524
H     -3.865780   -0.104057    2.137163
H     -3.548714   -1.863280    2.428934
H      3.261843   -2.846837    0.438820
H      1.723679   -2.937344    1.350166
H      3.053970   -1.795912    1.919822
H     -1.290955   -2.819373    0.367763
H     -1.929092   -2.214520   -1.258621
H     -3.000872   -2.383079    0.143015
H      4.688039   -1.440575   -0.309626
H      3.859174   -1.071333   -1.845245
H      0.144297   -1.875213   -2.717953
H      1.513554   -0.757302   -2.810463
H      6.034174   -0.024993   -1.598007
H      4.727898    1.125157   -1.929850
H      0.310496    0.882363   -1.848051
H     -1.128447   -0.091978   -2.085858
H     -0.894577   -0.044391    3.551725
H     -0.854327    1.135173    2.224166
H      1.283506   -0.845738    2.763899
H      2.466881    0.593130   -0.860489
H      3.246999    0.414252    0.719123
H      0.895557   -2.862406   -0.712565
H      2.394854   -2.445615   -1.539334
H     -3.591246    3.346258   -2.163787
H     -3.014981   -0.141029   -1.361548
H     -3.897795   -0.416917    0.131680
H     -1.367320   -1.844767    2.005933
H     -0.455139    0.964753    0.233748
H     -3.185776    1.833633    1.009769
H     -5.915820    1.691815    0.708578
H     -2.057426    2.109826   -1.636948
H     -6.873616   -0.015936   -0.500026
