69

C     -8.856418    1.366399   -0.907557
C     -6.538740    2.686909   -0.057721
C      3.912267   -1.503029    3.342509
C     -3.656327    1.514047    0.353315
C     -0.996231    0.074525   -0.245620
C     -7.525331    0.972034   -1.389863
C      2.665059   -1.457669    1.169877
C      0.442155   -3.148128   -2.951044
C      1.832049   -2.430602    1.492292
C      0.468700   -2.536537   -4.117105
C      6.714496    0.814336    1.103311
C      7.921713    1.540150    1.553792
C     -5.133500    1.153584   -1.586498
C     -3.054605    0.002446   -1.611862
C      4.460905    0.049014    1.544007
C      6.013882    0.445154    3.470174
C     -6.375466    1.578575   -1.009182
C      3.726753   -0.921316    2.005448
C     -4.065703    0.551055   -0.676280
C     -1.893931   -0.745962   -1.112294
C      5.559823    0.784060    2.118647
C     -0.198741   -2.523425   -1.760608
C      0.832514   -2.802408    0.466786
C     -0.122232   -1.230105   -4.307243
C     -1.177897   -1.529053   -2.199553
O      7.629196    2.866000    1.851996
O      6.947525    1.458564    3.941749
O      0.044258   -3.713383    0.747980
O     -0.082531   -0.673781   -5.411380
O      0.705994   -2.232986   -0.750194
O     -0.724156   -0.631720   -3.228267
H     -8.966699    1.353110    0.194996
H     -9.046064    2.418238   -1.230982
H     -9.668945    0.773163   -1.362363
H     -6.778180    2.385348    0.982618
H     -5.698359    3.406509   -0.041681
H     -7.402199    3.328419   -0.458206
H      3.426723   -0.942509    4.167168
H      4.947043   -1.818565    3.513339
H      3.368911   -2.510479    3.395633
H     -4.579020    1.691733    1.003535
H     -2.971521    1.059919    1.144761
H     -3.333085    2.505853    0.027016
H     -1.067874   -0.236625    0.802934
H     -1.221373    1.165895   -0.297342
H      0.093572   -0.081305   -0.501249
H     -7.457993    0.145971   -2.092979
H      2.540142   -1.012507    0.169860
H      0.907756   -4.145100   -2.864403
H      1.879539   -2.903060    2.431989
H      0.966461   -3.077974   -4.937401
H      6.897336   -0.261762    0.868424
H      6.308228    1.285423    0.187837
H      8.493261    1.073615    2.351808
H      8.622363    1.559132    0.656849
H     -4.567719    2.000665   -2.107651
H     -5.276785    0.437612   -2.466413
H     -3.655269   -0.692464   -2.288295
H     -2.738401    0.856044   -2.295759
H      4.189129    0.394658    0.471030
H      5.284655    0.341797    4.263463
H      6.635212   -0.502155    3.427432
H     -4.582877   -0.300862   -0.146151
H     -2.347150   -1.520453   -0.383220
H      5.267277    1.929824    2.108552
H     -0.816754   -3.382548   -1.323616
H     -2.009271   -2.091728   -2.711368
H      8.502687    3.350791    1.884102
H      6.379764    2.239633    4.227937
