30

C      4.378192    1.339529    0.262334
C     -1.867769   -1.206995    0.915691
C     -0.838111   -1.751859    0.298826
C     -2.287944    0.231781   -0.955233
C      0.170366   -0.404877   -1.401575
C     -2.732831    1.061188    1.327925
C      1.384685   -1.018782    0.752077
C      3.266804    0.399956   -0.064429
C     -1.293539   -0.445624   -1.820506
C     -1.816344    0.238805    0.490047
C      0.140468   -0.608497    0.076795
O     -2.532193    0.924884    2.680357
O      3.077487    0.107133   -1.267398
O     -1.581249   -1.024529   -2.833857
O      2.443593   -0.161339    0.857014
O     -0.479408    0.502246    0.647581
H      4.631502    1.304800    1.348135
H      4.163399    2.372636   -0.018007
H      5.274410    0.959126   -0.273292
H     -2.592969   -1.678977    1.578672
H     -0.683113   -2.759796    0.004916
H     -2.562126    1.242203   -1.313411
H     -3.253195   -0.351946   -0.955918
H      0.758469   -1.109579   -1.979801
H      0.520875    0.643661   -1.627675
H     -3.777736    0.714011    1.107497
H     -2.678256    2.124372    1.019273
H      1.084702   -1.286537    1.820583
H      1.666840   -2.036264    0.343707
H     -1.985010    1.679268    3.016734
