23

C     -3.331270    0.337030    0.488114
C     -2.310842    0.341439    1.410984
C     -3.066474    0.003998   -0.818085
C     -1.051070    0.013003    1.006019
C     -1.803360   -0.326395   -1.229152
C      1.488079   -1.303029    0.320290
C     -0.790320   -0.318844   -0.298255
C      0.604352   -0.663167   -0.657283
C      1.653293    0.149550    0.022865
C      2.739302    0.637974   -0.833245
N      2.508364    1.280427   -1.914683
O      4.058187    0.404480   -0.473441
H     -4.335582    0.597167    0.803142
H     -2.496817    0.598071    2.433406
H     -3.847028   -0.011433   -1.579753
H     -0.264492    0.025605    1.759895
H     -1.573930   -0.590098   -2.246130
H      2.317196   -1.970048   -0.009827
H      1.023966   -1.588800    1.301809
H      0.755488   -0.921823   -1.719610
H      1.376163    0.837030    0.853643
H      1.525666    1.459417   -2.191272
H      4.821128    1.008445   -0.742610
