67

C      6.905626    1.428244   -0.125935
C      8.671924    0.162074    0.980568
C     -5.850586    2.285666    0.561291
C     -4.436659    3.503667   -1.088562
C      3.920419   -0.617562    0.227647
C      5.158829   -1.303201    0.494530
C      3.834133    0.409626   -0.811318
C      6.443337   -0.825814    0.939178
C      2.344065    0.866101   -0.975021
C     -3.866090    1.152441   -0.569739
C     -0.305803    0.230264    1.085611
C     -5.585135   -1.976409   -0.850745
C     -6.200198   -2.522889    1.560334
C      7.337789    0.060261    0.205437
C     -4.496229    2.381961   -0.033228
C     -3.604908    0.045912    0.427741
C     -0.325278   -0.947892    0.182177
C      1.534592   -0.313796   -1.365591
C     -4.828564   -0.484099    1.090607
C     -1.681011   -1.393497   -0.262300
C     -5.772056   -1.461230    0.533820
N      0.591834   -0.863628   -0.849941
N     -2.800594   -0.965088   -0.121445
O     -0.575893    1.439870    0.507758
O     -5.902557   -3.346781   -0.930548
O      1.990685   -0.891165   -2.608241
O     -5.121753   -0.083461    2.240269
O     -1.586174   -2.611511   -1.030249
O     -7.052741   -1.549997    1.097897
H      7.821756    2.114258   -0.115710
H      6.253042    1.852989    0.654079
H      6.461813    1.520936   -1.150866
H      9.219787    1.041822    0.607588
H      8.365071    0.318970    2.038881
H      9.252457   -0.753071    0.840382
H     -6.311481    1.330302    0.318735
H     -5.792455    2.396014    1.659319
H     -6.505126    3.139297    0.174624
H     -3.359379    3.737580   -1.213546
H     -4.922493    3.188566   -2.027462
H     -4.922645    4.389102   -0.640202
H      3.140973   -1.423140   -0.070931
H      3.464641   -0.232519    1.215468
H      5.416422   -1.976421   -0.445661
H      4.910305   -2.229488    1.203374
H      4.276269    0.153653   -1.757996
H      4.268619    1.364018   -0.404756
H      6.351471   -0.409281    2.026385
H      7.085322   -1.766481    1.208868
H      2.075219    1.336915   -0.042788
H      2.397036    1.600180   -1.822402
H     -4.418139    0.759126   -1.464590
H     -2.852665    1.420523   -1.003534
H     -0.915465    0.060020    2.028746
H      0.743070    0.275944    1.529887
H     -4.555753   -1.868519   -1.199247
H     -6.283113   -1.413991   -1.529899
H     -5.895959   -2.398815    2.612933
H     -6.282232   -3.563759    1.201250
H      7.610735   -0.474686   -0.787411
H     -3.823469    2.808048    0.789167
H     -3.018990    0.563380    1.250506
H      0.002951   -1.824495    0.860303
H     -0.505395    1.408839   -0.483245
H     -6.847150   -3.506043   -0.773918
H      1.712637   -1.834321   -2.842322
H     -2.358687   -2.913518   -1.576814
