57

C      0.132911    1.603243   -2.006766
C     -4.665750   -2.182742    0.227253
C      7.201395    0.689071    1.413729
C     -3.478288    1.047271    2.517146
C     -2.385194   -1.235003    1.364645
C      1.424052   -0.318142   -1.321766
C     -4.940696   -0.197175   -1.215600
C      2.599157    0.124070   -2.055779
C     -5.987519    0.360715   -0.265996
C     -0.817454   -0.194255   -0.512616
C     -1.997993    0.383380   -0.400238
C      6.283311   -1.933087    0.588492
C      0.299640    0.333685   -1.284327
C     -3.939886   -1.078001   -0.496326
C      6.009000    0.509775    0.510873
C     -3.877215    0.771018    1.090761
C      3.792006    0.295151   -1.158671
C      5.584977   -0.754351    0.127818
C     -5.336087    0.491165    1.062544
C      5.331655    1.623530    0.062066
C      4.476631   -0.829302   -0.705143
C      4.210316    1.534496   -0.781510
C     -3.042433   -0.272634    0.421418
Cl     5.873789    3.205432    0.549843
O      7.272571   -1.819076    1.334293
O     -6.018500    0.364534    2.055723
O      4.008384   -2.039225   -1.118569
O      3.597332    2.709521   -1.179595
H      0.468885    2.480673   -1.390577
H      0.667308    1.617445   -2.987960
H     -0.930946    1.853071   -2.251208
H     -4.838443   -1.994804    1.286150
H     -5.656939   -2.303494   -0.264780
H     -4.153921   -3.175576    0.090611
H      6.998221    0.210600    2.367761
H      8.069652    0.281878    0.869233
H      7.410257    1.785174    1.515656
H     -2.355607    1.142453    2.587965
H     -3.861238    2.059290    2.767410
H     -3.888211    0.348552    3.244562
H     -2.155217   -2.200175    0.866330
H     -1.475901   -0.873784    1.839173
H     -3.076361   -1.520258    2.213301
H      1.534394   -1.276841   -0.772557
H     -5.460185   -0.818776   -1.968478
H     -4.392593    0.631851   -1.701575
H      2.852339   -0.734024   -2.771586
H      2.481235    0.979486   -2.733756
H     -6.209052    1.405308   -0.604714
H     -6.904020   -0.249295   -0.248940
H     -0.633528   -1.154465    0.007923
H     -2.214468    1.309916   -0.883200
H      5.974761   -2.915676    0.306266
H     -3.334021   -1.573649   -1.295766
H     -3.739889    1.723617    0.536081
H      4.408539   -2.915935   -0.865057
H      2.804837    2.684369   -1.776851
