67

C      5.609288   -0.633151   -1.367105
C      7.403719    1.093623   -1.500882
C     -5.288448   -2.838190   -1.953813
C     -4.791564   -2.780067    0.419449
C      3.865494    1.409441    0.979483
C      4.934020    0.431473    1.339623
C      2.601949    1.113762    1.719904
C      6.232111    0.772709    0.594144
C      2.130041   -0.295537    1.354742
C     -3.867664   -1.061266   -1.145590
C     -0.039141   -2.176114   -0.522372
C     -3.231100    3.218121   -0.264314
C     -5.593250    3.117196    0.814388
C      6.049606    0.733263   -0.895793
C     -5.056529   -1.874908   -0.759221
C     -3.414305   -0.033499   -0.118472
C     -0.766781   -1.185852    0.373292
C      0.856187   -0.548451    2.079071
C     -4.422408    0.965374    0.183254
C     -1.041976    0.030067   -0.398617
C     -4.473566    2.423355    0.084914
N     -0.191107   -0.885819    1.591235
N     -2.199306    0.497794   -0.588886
O      0.130976   -3.415115    0.098223
O     -2.114104    2.850731    0.421624
O      0.870549   -0.375684    3.502304
O     -5.500202    0.469708    0.626004
O      0.000935    0.768236   -0.989612
O     -5.636981    2.929088   -0.564913
H      6.233161   -0.945597   -2.224143
H      4.541108   -0.580329   -1.725663
H      5.705326   -1.373733   -0.556892
H      7.970170    0.146163   -1.637367
H      7.239331    1.524847   -2.511389
H      7.956653    1.815797   -0.880159
H     -6.196602   -3.405442   -1.684802
H     -4.398432   -3.485992   -2.079673
H     -5.388972   -2.245755   -2.884522
H     -3.874362   -3.388326    0.169295
H     -5.625355   -3.538412    0.418552
H     -4.698969   -2.266151    1.376808
H      4.160499    2.454351    1.239683
H      3.619199    1.395123   -0.107375
H      5.195238    0.432903    2.409372
H      4.637028   -0.618159    1.080492
H      1.812240    1.845677    1.540379
H      2.853846    1.141472    2.819237
H      6.502302    1.812654    0.891958
H      7.046320    0.085251    0.905353
H      2.085029   -0.343286    0.278453
H      2.839199   -1.072598    1.719870
H     -3.019221   -1.740041   -1.329938
H     -4.022976   -0.555606   -2.146633
H      0.891843   -1.838542   -0.935323
H     -0.729926   -2.404818   -1.399638
H     -3.005035    3.141701   -1.364537
H     -3.469105    4.293244   -0.052020
H     -5.438136    4.142002    1.204811
H     -6.336462    2.528641    1.368672
H      5.314232    1.477118   -1.194969
H     -5.984387   -1.303348   -0.598407
H     -3.311321   -0.652253    0.834692
H     -1.741720   -1.741421    0.608985
H     -0.737661   -3.872768    0.096371
H     -1.688589    3.587170    0.948136
H      0.172128   -0.831629    4.052607
H     -0.164068    1.659808   -1.439938
