31

C     -1.121644    2.876732   -0.295493
C      4.921089    0.052555   -0.206881
C     -3.458745   -2.264147   -0.163499
C     -2.730084   -2.102309    0.994768
C     -3.075861   -1.612035   -1.323282
C     -1.597864   -1.272573    0.991208
C     -1.945530   -0.791093   -1.303729
C      1.199490   -0.646012   -0.142883
C     -0.467435    2.317097    0.900928
C      3.585350   -0.599085   -0.161731
C     -1.209904   -0.621048   -0.155171
C     -0.025938    0.254718   -0.184382
N      0.027749    1.140962    0.961064
O     -0.373235    3.104407    2.048268
O      3.583821   -1.865751   -0.091645
O      2.392462    0.109904   -0.192831
H     -0.403869    3.445404   -0.948325
H     -1.924670    3.575120    0.023120
H     -1.591566    2.055160   -0.867703
H      5.476346   -0.432361   -1.048489
H      4.778617    1.100095   -0.474442
H      5.431732   -0.069472    0.759976
H     -4.346708   -2.915356   -0.159197
H     -3.029020   -2.610947    1.898695
H     -3.632975   -1.731289   -2.222845
H     -1.034066   -1.153934    1.907938
H     -1.679722   -0.298671   -2.232756
H      1.166691   -1.408957   -0.942397
H      1.171478   -1.191713    0.825789
H      0.016380    0.827310   -1.128685
H     -0.102372    2.727289    2.934614
