31

C     -1.431866    3.855559   -0.773384
C      4.306521   -2.010307    0.443854
C     -2.853660   -2.508274   -0.129948
C     -3.223892   -1.228889    0.176962
C     -1.521253   -2.785314   -0.270592
C     -2.268063   -0.269773    0.334030
C     -0.549735   -1.791561   -0.106776
C      1.430504    0.338981   -0.160597
C     -0.939014    2.778811    0.118823
C      3.436342   -0.939519   -0.084200
C     -0.903371   -0.502128    0.201510
C      0.073283    0.583881    0.382230
N     -0.452720    1.730362   -0.377284
O     -1.019164    2.938546    1.486194
O      3.917178   -0.235041   -1.035305
O      2.162568   -0.693802    0.410210
H     -2.546616    3.921125   -0.704278
H     -0.965906    4.822589   -0.470342
H     -1.177513    3.696668   -1.824374
H      5.043877   -1.588060    1.152219
H      4.900861   -2.455676   -0.386058
H      3.712236   -2.839650    0.878214
H     -3.647894   -3.238080   -0.245454
H     -4.279886   -0.957399    0.299962
H     -1.239506   -3.810087   -0.515564
H     -2.573654    0.735686    0.575328
H      0.470006   -2.073784   -0.232442
H      1.384770    0.175843   -1.255927
H      2.015176    1.281924   -0.020922
H      0.096549    0.909648    1.443281
H     -1.356157    2.157722    2.067146
