32

C     -3.121766   -0.745937   -1.411017
C     -1.907260    1.263642   -0.921473
C      1.765090    1.486369   -1.068697
C     -1.210092   -0.946339    0.071301
C      0.635245    0.594549    1.014191
C     -1.668229   -0.241964   -1.137786
C      3.095044    0.373015    0.672856
C      0.377549   -1.746970    1.699547
C      1.765066    0.421513    0.016201
C      0.154808   -0.736975    0.593718
N      1.232675   -0.843431   -0.380037
O      3.664674   -0.731121    0.809063
O      3.735256    1.491893    1.141803
O      1.338958   -2.502668    1.647145
O     -0.522855   -1.776246    2.735252
H     -3.795935   -0.377725   -0.618599
H     -3.103117   -1.841445   -1.389473
H     -3.458093   -0.316126   -2.374101
H     -1.045560    1.850768   -1.210512
H     -2.196533    1.425488    0.131939
H     -2.797504    1.605061   -1.511279
H      1.140767    1.191585   -1.936136
H      2.802700    1.565220   -1.448703
H      1.487883    2.484716   -0.673546
H     -1.917221   -0.647647    0.911961
H     -1.390454   -2.045165   -0.022400
H      0.035549    1.484913    0.849630
H      1.023745    0.617295    2.062999
H     -1.130100   -0.405062   -2.065251
H      0.942568   -0.969374   -1.357458
H      4.571362    1.494372    1.698905
H     -0.504221   -2.476204    3.469957
