78

C      9.155434   -1.692063    0.381314
C      9.947083    1.723115    1.847845
C      3.293444   -2.044191   -1.839343
C      6.248791    0.291964    1.781576
C      5.911138   -0.681616   -1.867325
C      9.935669   -0.475836    0.803645
C     -0.740057   -0.716075    0.125491
C     -1.919980   -0.251208   -0.214670
C      0.458460   -0.518465   -0.685952
C     -3.115843   -0.460898    0.616086
C      1.637579   -0.982170   -0.348686
C     -4.277181    0.037738    0.208642
C    -10.601140   -2.083071    0.014192
C    -10.841208   -1.439826   -1.114666
C      8.110735    1.042107    0.433756
C      3.924535   -0.045267   -0.418908
C      5.934940    1.432044   -0.533627
C     -8.236348    0.479176   -1.077588
C     -7.125541    2.449074    0.023245
C      9.032565    0.570966    1.482966
C      2.880800   -0.780454   -1.184884
C      6.795581    0.917307    0.558101
C      5.096497    0.405299   -1.223079
C     -7.018008    0.993215   -0.378635
C    -10.088453   -1.383229    1.192469
C    -10.580935   -0.011235   -1.155770
C     -5.461132   -0.172572    1.035097
C     -9.446838   -0.169027    1.013042
C     -9.503057    0.544315   -0.294970
N     -6.638518    0.247861    0.765453
O     -5.870240    2.890542    0.498398
O    -11.256700    0.734087   -1.906040
O     -5.337166   -0.888222    2.227413
O     -9.893682    1.878866   -0.036100
O    -10.820734   -0.243636    1.575146
H      9.455969   -2.055568   -0.644536
H      8.078141   -1.450105    0.355183
H      9.308366   -2.527149    1.126276
H     10.312067    2.203100    0.921859
H      9.349719    2.479521    2.386343
H     10.769513    1.329861    2.486330
H      2.433863   -2.780427   -1.658080
H      4.165932   -2.553489   -1.423111
H      3.284138   -1.953829   -2.950292
H      5.183802    0.652402    1.912053
H      6.246121   -0.796024    1.756208
H      6.733345    0.699142    2.725756
H      6.229991   -1.485491   -1.176602
H      6.847509   -0.144260   -2.242357
H      5.422959   -1.039897   -2.766798
H     10.801752   -0.725300    1.417021
H     10.267966    0.030303   -0.146475
H     -0.648345   -1.267429    1.041793
H     -1.995529    0.301927   -1.140474
H      0.380366    0.036054   -1.612216
H     -3.048305   -1.012123    1.543317
H      1.734155   -1.539168    0.574593
H     -4.271187    0.578619   -0.726415
H    -10.807230   -3.166098    0.018247
H    -11.224836   -1.974168   -1.987168
H      8.564577    1.499365   -0.451776
H      4.342121   -0.813891    0.315782
H      3.524438    0.782313    0.189800
H      5.217262    2.178388   -0.083547
H      6.522036    2.009794   -1.285011
H     -8.368293    1.099657   -1.996691
H     -8.044120   -0.561584   -1.372212
H     -7.365655    3.094853   -0.845125
H     -7.868067    2.643881    0.802835
H      8.569905    0.111076    2.358918
H      2.513615   -0.096497   -2.017111
H      4.669581    0.980471   -2.136898
H     -6.190541    0.947150   -1.134668
H     -9.774431   -2.073111    2.021909
H     -8.811683    0.301018    1.795602
H     -5.884952    3.001500    1.481078
H     -6.043546   -0.825746    2.930427
H    -10.172980    2.282342   -0.909036
