47

C     -5.173708    0.883946   -1.966687
C     -4.078224    2.008643   -0.008880
C      7.665319    0.552038    0.292653
C      6.711820    0.465971    1.288294
C      7.285068    0.816269   -0.998674
C      5.386348    0.647068    0.973151
C      5.954498    0.997481   -1.314743
C      0.863628   -1.876130   -1.116822
C      1.909286   -1.754584   -1.996413
C      1.665677   -0.059340    0.123636
C     -5.340523   -0.087870    1.828849
C     -0.225101   -2.413033    1.739617
C      0.707053   -1.032062   -0.024751
C      4.993407    0.913530   -0.325544
C     -5.296605   -0.249803    0.362181
C      2.853794   -0.768838   -1.817443
C      2.738673    0.081442   -0.763099
C     -0.427766   -1.231523    0.895050
C     -4.876157   -1.004934    2.657708
C     -3.996268   -0.593810   -0.286262
C     -2.714772   -0.461339    0.440570
C     -4.652911    0.730797   -0.538008
Cl    -4.888820   -0.875668    4.400195
Cl    -4.227811   -2.493183    1.933684
F      3.879092   -0.678870   -2.708401
N     -0.052175   -3.371796    2.403984
O     -2.499902    0.431135    1.299697
O      3.654813    1.079381   -0.547348
O     -1.675458   -1.336027    0.200181
H     -5.787984    1.777830   -2.084631
H     -4.281456    0.979775   -2.614538
H     -5.662168   -0.071798   -2.237999
H     -4.204213    1.999029    1.093939
H     -4.613233    2.897273   -0.428395
H     -3.017143    2.153689   -0.222321
H      8.714252    0.415043    0.501764
H      7.013391    0.255100    2.310151
H      8.064557    0.878125   -1.763382
H      4.657453    0.576322    1.759992
H      5.705979    1.212485   -2.345398
H      0.136306   -2.650613   -1.270797
H      2.027834   -2.418947   -2.848291
H      1.588410    0.627216    0.960204
H     -5.766655    0.814314    2.291063
H     -6.187751   -0.763134   -0.052478
H     -0.511661   -0.349119    1.554168
H     -4.018193   -1.406414   -1.029425
