48

C     -1.256323    1.441758    2.014707
C     -5.033875   -0.285875    0.681417
C     -1.878935   -2.813550    1.183107
C      4.055943   -0.464238    1.829402
C      4.417976   -1.428841    0.912521
C      3.699268    0.775589    1.342005
C      4.424541   -1.167852   -0.441885
C      3.705864    1.036463   -0.012288
C      1.223882   -0.839992   -1.566870
C      0.300022   -1.595049   -0.863110
C     -2.645032    1.840933   -0.047451
C     -3.629781    0.925738   -0.743324
C      0.237515    1.134310   -0.808298
C      4.066029    0.079982   -0.939574
C      1.222267    0.530036   -1.561268
C     -0.701749    0.382343   -0.093099
C     -0.695395   -0.967666   -0.101185
C     -2.656866   -0.359879    0.950391
C      3.159526    0.934649   -2.997011
C     -1.819590    0.867587    0.760339
N      4.081180    0.321598   -2.332616
N     -3.738247   -0.278083    0.021533
N     -1.748042   -1.458388    0.703057
O      3.283796    1.116475   -4.364768
O      2.103369    1.358896   -2.225753
H     -0.915367    2.478617    1.806704
H     -1.967153    1.447478    2.857824
H     -0.367686    0.828112    2.305459
H     -5.695328    0.486215    0.237146
H     -4.936955   -0.049460    1.773839
H     -5.558683   -1.252971    0.578075
H     -2.557664   -3.423821    0.523452
H     -2.239455   -2.820064    2.239416
H     -0.906851   -3.348639    1.197322
H      4.053948   -0.679839    2.895913
H      4.701950   -2.408984    1.267222
H      3.410336    1.548863    2.056973
H      4.708638   -1.926639   -1.152797
H      3.423236    2.018863   -0.398286
H      1.981121   -1.338847   -2.167194
H      0.321323   -2.665641   -0.882087
H     -3.156845    2.574309    0.584064
H     -2.045437    2.344335   -0.840755
H     -4.584175    1.479385   -0.853395
H     -3.249193    0.668396   -1.774242
H      0.196732    2.216715   -0.774755
H     -3.011148   -0.445817    2.005800
H      4.217312    1.182492   -4.785674
