42

C      4.373575    1.084543   -0.827092
C      5.557130   -0.955723    0.039805
C     -4.691646    1.445594   -0.990404
C     -2.242003   -1.352984   -0.283626
C     -3.102687   -0.487780   -1.163819
C      3.111516   -0.700043    0.299206
C      0.342635   -2.387914    0.358936
C      4.486616    0.071380    0.262626
C     -1.536586   -0.671583    0.826647
C     -0.046060   -1.019198    0.616535
C      2.106943    0.289300    0.572422
C      0.664110    0.069956    0.705028
C     -1.518408    0.765921    0.916931
C     -2.354919    1.519799   -0.086388
C     -3.600619    0.665514   -0.334846
O      1.437648   -2.856291    0.156185
O      2.490220    1.528448    0.724154
O     -2.800796    2.719419    0.457835
O     -4.003207    0.199586    0.918477
O     -0.209400    1.165306    0.980255
H      5.173754    0.961930   -1.588195
H      4.438752    2.129739   -0.413917
H      3.409135    0.994958   -1.356878
H      5.570655   -1.247051   -1.022228
H      6.533999   -0.557414    0.389716
H      5.291558   -1.864199    0.621972
H     -5.023665    1.045264   -1.954560
H     -4.371378    2.514751   -1.153288
H     -5.568894    1.527884   -0.292936
H     -2.959843   -2.107054    0.166061
H     -1.581263   -2.001330   -0.927427
H     -2.421477   -0.100011   -1.975043
H     -3.926296   -1.070575   -1.621886
H      3.046192   -1.137057   -0.719063
H      3.255318   -1.415530    1.124457
H     -0.503596   -3.111428    0.348939
H      4.574894    0.573549    1.232645
H     -1.729470   -1.147905    1.824726
H     -1.976131    1.061266    1.925194
H     -1.836974    1.733467   -1.035071
H     -3.072521    2.509561    1.406726
H     -4.786814   -0.386064    0.871189
