42

C      4.517225   -0.129240    0.834896
C      3.239318   -1.007664   -1.063722
C     -2.138826   -1.637350   -0.811096
C     -3.195982    0.922758    0.380401
C     -3.265257   -0.422690    1.074981
C      2.855825    1.328271   -0.193518
C     -1.394607    1.654936   -1.979687
C      3.182673   -0.108284    0.122644
C     -1.838818    1.497002    0.608878
C     -0.958719    1.533658   -0.592043
C      1.537009    1.434023   -0.907736
C      0.278261    1.441472   -0.159261
C     -0.998112    0.691204    1.566577
C     -0.846019   -0.735367    1.142848
C     -2.144525   -1.351949    0.674492
O     -0.703378    1.692150   -2.985714
O      1.617102    1.511058   -2.145542
O     -0.244493   -1.479315    2.127040
O     -2.386413   -2.567882    1.327391
O      0.267245    1.335527    1.270575
H      4.507690    0.546967    1.721237
H      4.707005   -1.180394    1.180445
H      5.340933    0.193165    0.158339
H      2.495327   -1.844989   -0.904715
H      4.206462   -1.543305   -1.187107
H      2.956451   -0.534803   -2.027310
H     -2.504222   -2.661783   -1.031992
H     -1.117757   -1.493622   -1.246409
H     -2.811626   -0.951131   -1.367120
H     -3.550669    0.889406   -0.646525
H     -3.927127    1.576210    0.940540
H     -4.272904   -0.867208    0.948996
H     -3.138942   -0.215735    2.163668
H      3.648618    1.852555   -0.731826
H      2.704126    1.852624    0.777984
H     -2.481744    1.722916   -2.144085
H      2.444523   -0.477295    0.870556
H     -1.870672    2.539178    1.005916
H     -1.309634    0.862542    2.593198
H     -0.154755   -0.760369    0.253826
H      0.074829   -2.359476    1.748177
H     -3.325422   -2.747772    1.486471
