68

C      1.610408    0.277151   -2.981887
C     -3.455774   -1.201980   -2.333100
C      1.857699   -0.381888   -4.170861
C     -3.977203   -2.380051   -2.839546
C      3.917013    0.433580   -2.588679
C     -3.743517   -1.979997   -0.124818
C     -1.436386    3.356503    3.162162
C     -3.445914    2.789514    2.028687
C      3.872158    0.180438    0.617432
C      1.708452   -1.050390    3.485691
C      2.652633    0.708227   -2.148304
C     -3.332688   -0.987621   -0.977702
C     -2.740854    3.640062    2.851934
C      2.718024   -0.180407    1.487457
C      3.129819   -0.638607   -4.579132
C     -4.384009   -3.360863   -1.984693
C      2.815083   -0.761779    2.725197
C      4.167059   -0.226259   -3.779517
C     -4.275845   -3.182607   -0.599249
C     -0.790051    2.219328    2.666562
C      0.448172   -0.743573    2.986365
C      3.505954    1.519401    0.001105
C     -2.868635    1.656581    1.509058
C     -1.535761    1.403216    1.851825
C      0.306915   -0.149281    1.723723
C     -0.997982    0.145070    1.246651
C     -1.280957    0.224170   -0.214236
C      2.300683    1.414090   -0.879493
C     -2.782785    0.279917   -0.470929
C      1.467085    0.119423    0.998620
O     -3.381037    4.781165    3.353101
O      3.370902   -1.311335   -5.793049
O     -4.919844   -4.572091   -2.447696
O      4.110444   -1.053332    3.186341
O      5.461838   -0.479647   -4.182133
O     -4.698152   -4.200439    0.254208
O      0.515250    1.931492    2.972660
O     -0.617904   -1.058593    3.807426
O      3.144530    2.417312    1.034148
O     -0.835090   -0.941115   -0.827695
O     -3.485245    0.755864    0.682739
O      1.288015    0.697856   -0.227924
H      0.616172    0.490524   -2.642957
H     -3.135916   -0.425695   -3.024794
H      1.020171   -0.703113   -4.795543
H     -4.058441   -2.514885   -3.895334
H      4.761627    0.746812   -1.976685
H     -3.671495   -1.868851    0.950112
H     -0.850446    3.999843    3.803644
H     -4.477171    3.005331    1.779869
H      4.135639   -0.585959   -0.102248
H      4.748400    0.364786    1.273324
H      1.849710   -1.503927    4.442815
H      4.377963    1.935555   -0.487845
H     -1.697218   -0.672491    1.621065
H     -0.889379    1.157872   -0.654737
H      1.952914    2.464314   -1.120618
H     -3.022274    1.043541   -1.271446
H     -3.857579    4.670625    4.232064
H      4.332667   -1.482638   -6.059798
H     -5.220933   -5.298033   -1.848140
H      4.295485   -1.479979    4.077676
H      6.235530   -0.174536   -3.593446
H     -4.601642   -4.022326    1.264887
H      1.117577    2.466455    3.548614
H     -1.561336   -0.869278    3.553051
H      2.916437    3.277164    0.599806
H     -0.698966   -1.661186   -0.155786
