105

C      3.050055    1.674731    1.892276
C      2.356516   -1.661139    2.439211
C     -5.969963   -4.034268   -2.746071
C     -4.926679   -4.209013   -0.576214
C     -6.023056   -2.077416   -1.313975
C     -2.847817    3.898886    2.826428
C     -4.562384    1.771274    1.629689
C     -3.520818    1.477715    4.420907
C     -4.116752   -1.928678   -4.206695
C     -2.626599   -4.259200   -3.058583
C      2.162987    1.321724    2.852741
C      0.641550    7.692052   -1.184869
C      8.146999   -1.552797   -3.447788
C     -0.382756    7.111984   -1.841615
C      1.321433    7.131870   -0.171052
C      7.550622   -0.331177   -3.433561
C      8.024258   -2.461156   -2.347462
C      0.693879    1.523351    2.503559
C     -0.775925    5.818034   -1.435818
C      0.927994    5.843442    0.226654
C      6.797682    0.030574   -2.300635
C      7.280038   -2.001239   -1.320785
C     -0.490353    3.843858    0.071120
C     -0.774650    2.687285    0.491242
C     -1.842775   -1.093953    1.819873
C     -0.639481   -1.122614    2.358043
C      2.165930   -1.701212   -0.058072
C      6.621113   -0.824759    1.192975
C     -1.858220    0.597416   -0.050340
C     -2.664566   -1.791502   -0.401313
C      1.482419   -1.515117    1.264255
C     -0.136441    5.186868   -0.418943
C      6.644337   -0.783773   -1.227358
C      5.826970   -0.369988   -0.035299
C      0.364413    0.800362    1.192580
C      3.303229   -0.792985   -0.325804
C      5.027509   -2.401127    0.651835
C     -5.138243   -3.225562   -1.710521
C     -1.718975   -0.893211    0.362481
C     -1.105459    1.352041    0.969951
C      0.290111   -0.648118    1.297886
N      4.623527   -1.137942    0.070723
O      3.100139    0.281600   -0.905876
O      4.543966   -3.524641    0.486053
O      6.103119   -2.098258    1.473447
O     -2.594697   -1.630815   -1.745786
O     -0.396156   -1.129670    0.114893
O     -1.649888    1.341635    2.201263
Si    -3.043174    2.057606    2.657892
Si    -3.590872   -2.722073   -2.565723
H      2.657418    2.067850    0.959562
H      4.092247    1.579564    2.069264
H      1.836153   -1.487973    3.392509
H      2.722928   -2.737383    2.496069
H      3.333905   -1.112694    2.407193
H     -6.434322   -3.318281   -3.418179
H     -5.333456   -4.756130   -3.286727
H     -6.761171   -4.616423   -2.220176
H     -5.927224   -4.662185   -0.342444
H     -4.259446   -5.040340   -0.876750
H     -4.556469   -3.787971    0.350062
H     -5.497287   -1.109964   -1.218769
H     -6.828660   -1.961417   -2.083379
H     -6.460349   -2.361032   -0.325651
H     -2.502181    4.167084    3.872586
H     -2.127460    4.321998    2.136935
H     -3.860032    4.380262    2.726744
H     -4.541995    2.244017    0.626772
H     -5.453066    2.102571    2.227228
H     -4.678362    0.679703    1.487125
H     -2.893864    2.009563    5.155062
H     -4.586326    1.709560    4.581181
H     -3.327425    0.400111    4.525199
H     -4.527987   -2.776197   -4.822786
H     -3.221081   -1.508788   -4.669804
H     -4.932570   -1.219460   -4.043465
H     -1.604235   -3.965219   -3.426326
H     -2.537662   -4.963208   -2.219995
H     -3.137386   -4.755713   -3.895046
H      2.525825    0.924840    3.754547
H      0.967216    8.725309   -1.536030
H      8.746676   -1.942407   -4.257171
H     -0.934285    7.578389   -2.618080
H      2.116512    7.619435    0.354320
H      7.621837    0.345909   -4.251280
H      8.513392   -3.401147   -2.436111
H      0.076741    1.105439    3.351839
H      0.507337    2.586395    2.519333
H     -1.580007    5.290013   -1.899873
H      1.439140    5.324904    1.032025
H      6.343864    1.035489   -2.348335
H      7.163192   -2.662403   -0.440762
H     -2.781848   -1.182100    2.371869
H     -0.366566   -1.429812    3.336735
H      1.360449   -1.440203   -0.837532
H      2.429058   -2.735491   -0.319735
H      7.719502   -0.900005    0.958827
H      6.509421   -0.122093    2.023784
H     -2.912733    0.776183   -0.064426
H     -1.373041    0.649744   -1.055309
H     -2.306110   -2.840818   -0.179287
H     -3.645414   -1.674607    0.068798
H      0.918214   -2.586750    1.311206
H      5.699621    0.733965   -0.013785
H      0.935278    1.179012    0.372614
