28

C     -4.193216    0.356864    0.466913
C     -1.215264   -0.371721   -1.554945
C      3.157065   -0.289957   -2.049545
C      0.433972    0.685919    1.373972
C     -0.926897    0.851060   -0.702287
C     -2.666533    0.246411    0.619444
C      2.381522    0.120109    0.478024
C      3.692071   -0.233195    0.193774
C      1.445996    0.270546   -0.513533
N      4.648776   -0.385875    1.221408
N      4.071388   -0.437200   -1.082867
N      1.880391    0.053260   -1.783815
N      1.719229    0.385292    1.635411
N      0.269003    0.613633    0.041582
O     -4.702887   -0.741952    1.197023
O     -2.010071    1.232701   -0.025914
S     -2.238595   -1.277170   -0.319602
H     -4.481163    0.244566   -0.583876
H     -4.584010    1.259283    0.960296
H     -0.293343   -0.907975   -1.768616
H     -1.809928   -0.088585   -2.430745
H      3.447940   -0.451580   -3.089430
H     -0.282004    0.932006    2.145138
H     -0.692941    1.663496   -1.456951
H     -2.490242    0.124828    1.684719
H      5.437398    0.277115    1.278253
H      4.569423   -1.148267    1.912622
H     -4.567078   -0.482844    2.153549
