45

C     -2.361503    0.024366    1.393262
C      2.337442    1.730473    0.254077
C      4.067436   -2.127012   -0.040839
C      1.090594    1.760143   -0.619596
C      2.710970   -1.941529   -0.237691
C     -2.018284    2.037937   -0.485366
C     -3.449867    1.551090   -0.692857
C     -0.144691   -1.632960    0.350062
C     -1.559986   -1.616273   -0.243774
C      4.291943    0.204339    0.347865
C      2.927895    0.371571    0.147008
C      4.853050   -1.048518    0.251969
C      2.114629   -0.701983   -0.149639
C      0.674423   -0.621532   -0.376315
C      0.119724    0.773007   -0.044193
C     -1.211277    0.823228   -0.682536
C     -3.366015    0.039410   -0.822008
C     -2.103652   -0.252033   -0.058257
N     -4.525213   -0.623245   -0.289827
O      6.222870   -1.168326    0.460938
H     -3.078055   -0.736571    1.752461
H     -1.476196    0.002202    2.030503
H     -2.851277    1.008020    1.546146
H      1.978945    1.829111    1.310251
H      3.049261    2.522658   -0.013162
H      4.500957   -3.122931   -0.119144
H      0.677816    2.774021   -0.729853
H      1.418698    1.397322   -1.628810
H      2.142780   -2.847701   -0.468601
H     -1.777961    2.797085   -1.262670
H     -1.892421    2.536712    0.496652
H     -4.099704    1.846768    0.158887
H     -3.864758    1.977793   -1.622712
H     -0.141590   -1.413635    1.419758
H      0.226039   -2.656567    0.199632
H     -2.144973   -2.316378    0.381253
H     -1.466733   -1.939411   -1.287178
H      4.939972    1.053289    0.583264
H      0.465312   -0.745474   -1.475943
H      0.073805    0.900277    1.055456
H     -1.135697    0.583693   -1.753439
H     -3.177716   -0.202573   -1.887001
H     -5.365632   -0.149538   -0.712753
H     -4.532712   -1.597029   -0.715133
H      6.861353   -1.083296   -0.315590
