28

C     -4.121672    0.276557    0.312166
C     -0.991696   -0.641963   -1.522019
C      3.007764   -1.069512   -1.595614
C      0.500818    0.807519    1.541074
C     -1.117583   -0.154316   -0.069974
C     -3.072431    0.824471   -0.597061
C      2.400114    0.287006    0.672780
C      3.703159    0.082826    0.332917
C      1.396459   -0.200271   -0.143629
N      4.752896    0.569464    1.148338
N      3.989509   -0.589724   -0.791749
N      1.723174   -0.868918   -1.261720
N      1.814950    0.908029    1.710898
N      0.219282    0.124876    0.398769
O     -3.856647   -0.954720    0.830730
O     -1.839621    0.992330   -0.060669
S     -2.742715   -0.315874   -1.998450
H     -5.065036    0.188592   -0.298375
H     -4.375214    0.976491    1.130819
H     -0.327897   -0.009915   -2.111841
H     -0.766814   -1.706690   -1.537463
H      3.330291   -1.597664   -2.478704
H     -0.242415    1.205265    2.205475
H     -1.545932   -1.005498    0.486488
H     -3.437800    1.769638   -1.046160
H      4.546740    0.734607    2.164555
H      5.706722    0.769605    0.797200
H     -3.588403   -0.964259    1.781219
