53

C     -2.605974   -4.028772   -1.628712
C      3.567087    2.750488    0.625172
C     -2.706653   -2.616189   -1.030593
C     -5.694319    1.359611   -0.879487
C     -4.417672    1.562832    1.118685
C     -4.524583    0.902218   -1.514780
C     -3.258583    1.124335    0.495097
C      3.497373   -1.428869    0.106042
C      4.609907   -0.699525   -0.187470
C      2.345621    0.536468    0.726685
C     -0.953488    0.087509   -0.699400
C      6.988094    0.914497   -0.817238
C     -0.592158   -1.372268    1.334213
C      3.511977    1.271233    0.414536
C     -5.592224    1.671739    0.445896
C     -3.299670    0.773791   -0.855431
C     -1.403486   -1.039511    0.167276
C      2.293500   -0.823316    0.591746
C      4.633034    0.665719   -0.038497
C      7.615636    0.019251    0.193915
C     -6.851726    2.066804    1.151088
F     -7.490235    3.019304    0.392403
F     -7.603262    0.946031    1.318500
F     -6.527794    2.677909    2.390170
O      8.690617   -0.574282   -0.010768
O      6.991717   -0.155507    1.423357
O     -1.476083   -2.237419   -0.643356
O     -2.165869    0.307387   -1.554659
O      5.783251    1.385672   -0.344037
S      1.018416   -1.921733    1.015081
H     -3.064201   -4.704565   -0.858386
H     -1.537728   -4.286212   -1.737020
H     -3.182985   -4.028586   -2.557969
H      4.356841    3.151543   -0.060744
H      2.609765    3.170684    0.321584
H      3.886944    2.937038    1.676545
H     -2.959287   -1.965060   -1.959242
H     -3.561683   -2.499992   -0.377092
H     -6.629507    1.443302   -1.449422
H     -4.397282    1.808590    2.183649
H     -4.624145    0.649321   -2.535805
H     -2.357388    1.105309    1.040780
H      3.430379   -2.495975   -0.021329
H      5.501190   -1.191794   -0.561786
H      1.453621    1.058092    1.090399
H     -0.156069   -0.174766   -1.435824
H     -0.816109    1.033136   -0.216087
H      6.963312    0.488526   -1.848839
H      7.679930    1.805198   -0.854502
H     -1.163938   -2.133795    1.978303
H     -0.561173   -0.445861    2.026747
H     -2.531677   -0.948576    0.397857
H      7.278737   -0.920962    2.052748
