43

C      4.659724   -1.434133   -1.727704
C      2.368849    3.391177   -0.246114
C     -2.216049    0.991140   -1.312427
C     -2.085732    2.195265   -0.717278
C     -0.052694   -2.667810    0.040880
C     -3.116682   -1.205631   -0.383320
C     -0.621548   -2.436638    1.448421
C     -2.770325   -2.082602    0.750663
C      1.984570   -1.400386   -0.687609
C      0.820146    0.985819    0.054828
C     -1.595952    1.027680    1.478071
C      0.703003   -1.382339   -0.189792
C     -2.321301   -0.169722   -0.429671
C     -2.066439    2.205792    0.742218
C      0.092471   -0.217784    0.185887
C      2.723644   -0.222125   -0.829106
C      2.116687    0.954140   -0.449597
C     -1.297449   -0.230709    0.675170
N     -1.651776   -1.407105    1.365534
O     -3.409986    2.517303    1.124568
O      4.000779   -0.271122   -1.329688
O      2.874907    2.119169   -0.598487
H      5.226620   -1.937336   -0.915320
H      5.440541   -1.157912   -2.492165
H      4.010399   -2.178520   -2.231147
H      3.145365    4.136678   -0.516356
H      2.134372    3.494734    0.819139
H      1.445146    3.534670   -0.866031
H     -2.266731    0.851290   -2.376291
H     -2.003586    3.064757   -1.298766
H      0.640081   -3.521317    0.130080
H     -0.800261   -2.878231   -0.708460
H     -3.921699   -1.363186   -1.123299
H      0.192694   -2.126290    2.093327
H     -1.041688   -3.397886    1.773090
H     -3.612798   -2.157612    1.486055
H     -2.507512   -3.101217    0.377359
H      2.415573   -2.350932   -0.970719
H      0.406557    1.926229    0.356518
H     -0.717237    1.290784    2.120614
H     -2.381815    0.713483    2.217490
H     -1.508194    3.119578    1.080653
H     -3.434673    2.778858    2.078784
