30

C      3.157740   -0.887560   -0.021261
C     -0.266885    2.588026    0.364979
C     -2.753242   -0.553602    0.182462
C     -1.496916   -1.360216    0.533970
C     -2.198865    0.558654   -0.668557
C      1.434463    0.896924   -0.028993
C      0.818335   -1.420249   -0.441921
C      1.710977   -0.535523    0.351025
C     -0.054174    1.128318    0.279708
C     -0.578546   -0.987375   -0.582225
N     -0.783783    0.431784   -0.712061
H      3.851938   -0.622417    0.802315
H      3.406559   -0.385976   -0.969015
H      3.201178   -1.991408   -0.168969
H     -0.115153    2.953042    1.422499
H      0.516679    3.132346   -0.226692
H     -1.227687    2.969539    0.038506
H     -3.245699   -0.175133    1.089213
H     -3.409300   -1.243694   -0.390803
H     -1.750837   -2.442845    0.555150
H     -1.126628   -1.101381    1.532595
H     -2.583370    0.382782   -1.716193
H     -2.598316    1.510707   -0.349614
H      1.537464    0.959506   -1.151156
H      2.075971    1.626088    0.461471
H      0.824914   -2.452405    0.015825
H      1.293488   -1.572054   -1.449042
H      1.546830   -0.656722    1.450369
H     -0.185040    0.701523    1.316708
H     -1.002098   -1.450679   -1.520294
