31

C      2.573375    1.280766    0.503478
C      2.909059   -0.941364   -0.425986
C     -3.447551   -0.197105   -1.154050
C     -1.079505   -0.931428   -1.369244
C     -0.080099   -1.363176   -0.337309
C     -1.732378    0.511545    0.520018
C     -0.075114    1.476316    1.960435
C      1.917945    0.158528   -0.273496
C     -1.988387    0.162261   -0.925729
C     -0.261529    0.935979    0.603221
C      0.621936   -0.269195    0.364007
N      0.053077    1.896947    3.035955
H      2.833395    0.883116    1.525312
H      3.498440    1.582245    0.002974
H      1.865998    2.141998    0.594420
H      2.757020   -1.574202   -1.326530
H      2.997292   -1.583868    0.482626
H      3.914997   -0.475349   -0.558084
H     -4.090168    0.227403   -0.355692
H     -3.529802   -1.316351   -1.059417
H     -3.786282    0.049075   -2.172761
H     -0.615265   -0.629519   -2.329756
H     -1.707540   -1.823620   -1.605622
H      0.624210   -2.067163   -0.817084
H     -0.649931   -1.975420    0.415405
H     -2.322340    1.416401    0.789244
H     -1.908437   -0.341012    1.197074
H      1.698242    0.567276   -1.289620
H     -1.810284    1.103247   -1.513789
H     -0.082625    1.738807   -0.125902
H      0.902253   -0.643139    1.394090
