32

C     -0.872628    1.117689    0.034632
C     -2.364284    0.936332    0.232676
C     -1.547791   -1.021992   -0.725870
C     -4.037279   -0.719453   -0.638194
C      3.092360    1.741092    1.339542
C      1.276587   -1.819507   -0.587111
C     -0.396131   -0.013989   -0.820010
C      2.895669   -0.815285    0.472687
C      4.036764   -0.405432    1.129288
C      1.836591    0.072358    0.247750
C     -2.709348   -0.054696   -0.836758
F     -2.616987    0.555946   -2.062153
N      5.101491   -1.308303    1.352233
N      4.094707    0.870866    1.543295
N      2.000912    1.316343    0.701585
N      2.513058   -1.976684   -0.057941
N      0.850891   -0.577213   -0.409040
O     -5.011548    0.278004   -0.634037
H     -0.362704    1.169567    1.017559
H     -0.751887    2.081141   -0.530953
H     -2.927081    1.881534    0.151211
H     -2.494599    0.438437    1.221180
H     -1.519434   -1.756076   -1.530914
H     -1.587914   -1.462485    0.292767
H     -4.234438   -1.337155   -1.545343
H     -4.039308   -1.306223    0.285891
H      3.179428    2.780687    1.695372
H      0.734096   -2.614898   -1.081353
H     -0.387368    0.305312   -1.902117
H      5.938519   -0.970109    1.906035
H      5.084133   -2.272127    0.995126
H     -4.774479    1.013438   -1.257034
