70

C      8.884362    0.212378    1.472372
C      0.468340   -1.642898    2.532852
C      1.464635   -2.202263    1.579382
C      6.832682    0.012595   -3.027698
C     -3.752990    0.367564    2.085387
C     -4.665400    1.082141    1.126845
C      0.103266   -0.243004    2.162060
C      7.923728    0.028989   -2.212035
C      5.555608    0.078630   -2.473673
C      2.218261   -1.172061    0.801714
C     -6.303943   -0.308404   -2.236347
C     -7.448368    0.819500   -0.534067
C     -7.367148   -1.186817   -2.356605
C     -8.517829   -0.051188   -0.643683
C     -3.058545   -0.818103    1.453496
C     -5.199559    1.666312   -1.183383
C      6.494802    0.174828   -0.331624
C     -3.273550    0.121111   -0.733949
C     -1.107000   -0.673409   -0.030848
C      8.932878    0.124933   -0.001740
C     -6.314334    0.722609   -1.318261
C     -4.108117    1.261098   -0.237106
C      7.769006    0.109799   -0.864915
C     -0.013761    0.006431    0.705568
C     -8.489527   -1.075733   -1.565874
C      5.362141    0.160914   -1.112589
C      1.349147   -0.195386    0.081063
C      3.348014    1.263076   -0.403397
F     -9.523768   -1.949644   -1.697957
N      4.070845    0.219591   -0.590553
N      2.045013    1.099944    0.146525
N     -2.426866   -0.437553    0.281753
O     10.077985    0.059461   -0.528662
O      3.864956    2.499345   -0.743601
H      8.868740    1.279194    1.793805
H      7.990379   -0.265712    1.921225
H      9.819768   -0.209566    1.921042
H     -0.404912   -2.323439    2.689456
H      0.910233   -1.576307    3.579359
H      1.038895   -2.951664    0.877037
H      2.224113   -2.774930    2.176718
H      6.963399   -0.052074   -4.106514
H     -4.331270   -0.016325    2.949605
H     -3.011580    1.077709    2.479166
H     -5.631321    0.537535    1.161823
H     -4.868260    2.087719    1.560926
H     -0.729591    0.173220    2.767024
H      0.987460    0.385863    2.512246
H      8.917290   -0.024350   -2.668359
H      4.731060    0.061788   -3.167139
H      2.912682   -0.664357    1.535475
H      2.860994   -1.739767    0.067767
H     -5.433920   -0.410275   -2.872861
H     -7.477217    1.626975    0.185151
H     -7.353371   -1.996354   -3.080751
H     -9.393388    0.049217   -0.014154
H     -2.454329   -1.339476    2.167493
H     -3.901391   -1.533623    1.188595
H     -5.626279    2.673067   -0.887863
H     -4.779677    1.893581   -2.214452
H      6.414807    0.238811    0.742508
H     -3.947889   -0.694754   -1.056497
H     -2.647475    0.388344   -1.603295
H     -0.942657   -1.796958   -0.063167
H     -0.958544   -0.397031   -1.121816
H     -3.390717    2.142616   -0.222663
H     -0.260283    1.131808    0.596418
H      1.278283   -0.519811   -0.978532
H      1.615918    1.939346    0.592900
H      4.815083    2.680600   -1.008123
