53

C      4.667144   -0.186749    1.744107
C      5.544321    1.021244   -0.154024
C     -1.947698   -1.725305    0.247545
C     -1.284530   -1.772540   -1.041862
C     -3.222824   -1.082899    0.543303
C     -0.712647   -0.533074   -1.640997
C     -4.926172    0.670018    0.838142
C      2.655043    0.444665   -0.322018
C      3.780820   -0.575833   -0.389682
C     -5.014023    2.171579    0.734416
C     -3.508664    0.311855    0.270054
C      0.332965    0.019323   -0.726934
N      1.552877   -0.036748   -1.079668
N      4.944486   -0.185622    0.342375
O     -0.043786    0.571747    0.466598
S     -5.026599    2.427148   -1.093710
S     -4.003826    0.563851   -1.523481
C      0.577642   -0.936662   -0.039739
C     -0.701793   -1.028775    0.028089
C      1.325062    0.235430    0.238204
C     -1.624393   -0.005991    0.386259
O      0.833119    1.315371    0.582469
O      2.741899    0.210558    0.125171
O     -2.882185   -0.331237    0.385973
O     -1.430350    1.299648    0.743009
H      3.882481   -0.941948    1.954959
H      5.595364   -0.392017    2.348410
H      4.285588    0.790633    2.095842
H      6.647797    0.869179   -0.292893
H      5.363725    1.902499    0.460852
H      5.157626    1.227281   -1.184670
H     -2.000878   -2.830113    0.608210
H     -1.156484   -1.354499    1.002480
H     -0.404559   -2.516217   -1.024437
H     -1.920580   -2.229746   -1.863585
H     -3.386335   -1.246101    1.681559
H     -4.034366   -1.778859    0.129170
H     -1.371983    0.290984   -1.870798
H     -0.209422   -0.807303   -2.622625
H     -5.650861    0.202472    0.152593
H     -4.996224    0.316814    1.875243
H      3.025595    1.402609   -0.786747
H      2.412745    0.574577    0.735385
H      4.027105   -0.747954   -1.462695
H      3.381298   -1.516220    0.046758
H     -4.124994    2.617815    1.191734
H     -5.961396    2.471872    1.173807
H     -2.842724    1.100219    0.508130
H      0.494595    0.491363    1.305815
H      1.148277   -1.843482   -0.338570
H     -1.124522   -2.035609   -0.226737
H      3.188761    1.123671   -0.056489
H     -2.051518    1.997078    0.363230
