58

C     -6.815278    2.585740    0.643257
C     -3.087971   -1.990414   -1.396125
C     -3.066800   -2.647717   -0.072387
C     -1.874855   -1.231623   -1.784328
C     -2.790323    2.641799   -0.378413
C      4.134296   -0.510774    1.008947
C     -4.124679    2.621836   -0.039286
C      5.485393   -0.659932    1.370696
C      7.361516    0.154419   -1.435390
C     -2.275833   -2.034215    1.004158
C     -0.556632   -0.451583    1.683722
C      8.394472   -0.139292   -0.576377
C      0.880618   -0.426852    1.272799
C      4.834321    0.129069   -1.126420
C     -0.546839    1.530060   -0.484664
C     -3.830850    0.365763    0.781320
C     -1.984949    1.517646   -0.132985
C      6.150709   -0.016392   -0.773865
C      3.765523   -0.114773   -0.239997
C     -4.630130    1.478522    0.539090
C     -0.902237   -0.973875   -0.689876
C     -2.517843    0.390417    0.445456
C      6.491029   -0.418759    0.498980
C     -0.010347    0.219251   -0.912768
C      2.407225    0.075443   -0.711542
C     -1.571338   -0.755329    0.654962
N      7.828258   -0.486815    0.599892
N      1.190555   -0.062799   -0.059036
O      2.286569    0.441443   -1.968492
O     -5.982045    1.471144    0.877759
H     -7.795470    2.461421    1.115383
H     -6.381648    3.527575    1.052891
H     -6.990507    2.765100   -0.444933
H     -4.017642   -1.361339   -1.536034
H     -3.228244   -2.806714   -2.169514
H     -2.766793   -3.733378   -0.169151
H     -4.138832   -2.715902    0.282548
H     -2.181327   -0.242872   -2.207991
H     -1.307020   -1.725198   -2.626915
H     -2.341738    3.513228   -0.834832
H      3.393879   -0.721174    1.744525
H     -4.782656    3.468847   -0.211464
H      5.678069   -0.977189    2.381798
H      7.472227    0.466123   -2.455169
H     -1.463238   -2.732648    1.364010
H     -2.872763   -1.842401    1.945190
H     -0.648106   -1.175875    2.552571
H     -0.799070    0.526521    2.150602
H      9.463484   -0.114400   -0.752086
H      1.294131   -1.434648    1.475648
H      1.426031    0.286596    1.957210
H      4.585335    0.442266   -2.118425
H     -0.009608    1.940104    0.424451
H     -0.375146    2.341451   -1.246162
H     -4.245557   -0.514317    1.232611
H     -0.255659   -1.866469   -0.582669
H      0.295033    0.292598   -1.984723
H      8.351297   -0.768714    1.465728
