64

C      6.156594   -0.222840   -2.771674
C      4.268517   -1.758981   -3.291529
C     -3.783179    0.886135    2.579729
C     -2.281711    3.213372    3.181311
C      0.458130   -1.429345    1.209087
C     -4.394960    0.229516   -0.839725
C     -4.339620   -1.967289   -1.970643
C     -3.141419   -0.057415   -2.916378
C      4.295393   -0.994560    0.161980
C      3.515988    0.565320   -1.409301
C      3.523925   -0.392350    1.132311
C      2.735501    1.173431   -0.424487
C     -2.301575   -1.140899   -0.825103
C      1.854813    2.806681    1.934377
C      5.144841   -1.181557   -2.183326
C     -2.303370    0.878131    2.377351
C     -1.554875    1.999287    2.663899
C     -0.257490   -0.216261    1.723900
C      4.306633   -0.525473   -1.133565
C      2.719407    0.710540    0.871044
C      1.925042    1.296254    1.956144
C     -2.681364   -1.800267    0.447208
C      0.509971    0.896697    2.005154
C     -1.631028   -0.226869    1.905080
C     -0.188832    1.997296    2.479304
C     -3.526631   -0.741688   -1.627829
N     -2.377713   -1.382499    1.606012
O     -3.431728   -2.972173    0.358064
O      0.703151    3.061614    2.726268
H      7.179180   -0.564984   -2.610486
H      6.025242    0.754797   -2.230575
H      5.914712   -0.072162   -3.854416
H      4.950211   -1.941365   -4.149577
H      3.482505   -1.075236   -3.611093
H      3.880494   -2.767807   -3.002698
H     -4.168154   -0.136201    2.485688
H     -4.030996    1.240869    3.602703
H     -4.283066    1.592414    1.879935
H     -3.242899    3.345381    2.661979
H     -2.375815    3.117565    4.271213
H     -1.636510    4.094572    2.982827
H     -0.306650   -2.258784    1.136518
H      0.916509   -1.257081    0.237292
H      1.138970   -1.764519    2.013514
H     -4.674023   -0.321002    0.099065
H     -3.820250    1.112767   -0.524537
H     -5.336598    0.443584   -1.354311
H     -4.893126   -1.727489   -2.916632
H     -3.620128   -2.800607   -2.155312
H     -5.052075   -2.226709   -1.151975
H     -4.089962    0.380038   -3.337053
H     -2.772339   -0.773320   -3.673968
H     -2.445183    0.787316   -2.765934
H      4.920914   -1.860940    0.389199
H      3.516127    0.943811   -2.425060
H      3.540083   -0.792674    2.151778
H      2.117881    2.034201   -0.669891
H     -1.776657   -1.915609   -1.455729
H     -1.595919   -0.320463   -0.696052
H      1.591945    3.160174    0.919173
H      2.759942    3.264340    2.343842
H      5.708768   -2.040095   -1.768439
H      2.348834    1.041399    2.958186
H     -3.794377   -3.399989    1.222134
