60

C     -5.641233    3.023484   -0.629103
C      3.552787    1.124966    1.381123
C      4.720427    0.343933    0.748443
C      2.673147    1.916925    0.851373
C      4.624853   -0.543987   -0.242150
C     -3.357534    2.721486   -1.451459
C     -2.103660    3.478434   -1.247266
C      1.505469    2.709100    1.412657
C      2.752412   -2.130199   -0.698836
C      2.075686   -2.797287    1.640070
C     -0.655987   -4.773894    0.277389
C     -1.547588    0.094667   -0.728385
C     -4.230284    2.607463   -0.280127
C      3.936163   -1.315245   -1.202792
C      3.147924   -2.775526    0.585040
C     -1.235378   -3.556666    0.554203
C     -2.864814   -0.565589   -0.366948
C     -1.083138    3.063067   -0.485454
C      0.864266   -3.497593    1.100601
C     -2.618350   -2.987554    0.392365
C      0.134180    3.821322   -0.307991
C     -3.505910    0.359338    0.654101
N      1.125330    3.688315    0.414641
N     -0.262218   -2.790864    1.061751
N     -2.800790   -1.848474    0.035984
O      4.730726   -2.243759   -1.923166
O      4.362317   -2.314388    1.120010
O     -3.614987   -3.891411    0.691305
O      0.174090    4.993515   -1.175216
O     -3.147143    0.095267    1.850821
O      0.605207   -4.702716    0.619881
O     -4.346284    1.320634    0.245236
S     -1.323508    1.526680    0.332609
H     -5.850891    2.722635   -1.674077
H     -6.383023    2.595859    0.080219
H     -5.721993    4.127564   -0.565056
H      3.649027    0.869066    2.489595
H      5.659130    0.558119    1.289246
H      2.582929    2.226481   -0.251952
H      5.784653   -0.829314   -0.629480
H     -3.939516    3.185977   -2.310295
H     -3.096924    1.727151   -1.845272
H     -1.980739    4.408046   -1.746493
H      0.623339    2.146551    1.644729
H      1.777977    3.301017    2.357256
H      1.865591   -1.527159   -0.604650
H      2.566959   -2.950250   -1.447147
H      2.471640   -3.404759    2.502520
H      1.829104   -1.793390    1.992705
H     -1.181494   -5.640114   -0.155987
H     -0.753823   -0.636115   -0.365031
H     -1.387813    0.351413   -1.759202
H     -3.878825    3.369414    0.471595
H      3.487275   -0.703308   -2.064442
H      3.390365   -3.866386    0.325463
H     -3.483223   -0.513945   -1.317341
H      4.123038   -2.941745   -2.252171
H      5.121571   -2.930017    0.890108
H     -4.594043   -3.823504    0.517984
H      0.673531    5.817270   -0.803532
