17

C      0.505099   -1.138424    0.265849
C      0.317450    1.076737   -0.516338
C      1.854686   -0.981636    0.450884
C      1.661401    1.246039   -0.336526
C     -2.774607    0.234088    0.406704
C     -0.306165   -0.116053   -0.222979
C      2.450319    0.232312    0.145439
C     -1.733202   -0.379154   -0.385706
Br     4.309742    0.535169    0.370991
O     -2.230528   -1.084715    0.842664
H      0.085346   -2.112627    0.521255
H     -0.324557    1.871112   -0.898205
H      2.500431   -1.767769    0.830620
H      2.097256    2.217314   -0.588108
H     -3.817880    0.067786    0.121707
H     -2.581222    1.025844    1.150746
H     -2.013570   -0.926022   -1.304627
