51

C      1.166475   -3.479881   -0.237916
C     -3.200913    1.178561   -1.013195
C     -4.058585   -0.119669    0.829815
C     -0.387994    0.151700   -1.732692
C     -1.025321    1.510370    1.702135
C     -1.104818   -2.670684   -0.495834
C      4.938449    2.258372    0.549499
C      4.044621    2.445402   -0.374583
C     -2.195145   -1.677616   -0.496101
C     -2.466456    1.655667    1.269202
C     -0.110125    1.294733    0.509325
C      3.924322   -0.002523    0.996227
C      2.043447   -0.941884   -0.145197
C      0.128230   -2.398232   -0.211459
C      2.960012    0.157868    0.038705
C      4.920132    1.003863    1.290114
C      0.630742   -0.993923    0.166457
C      3.046231    1.414597   -0.651857
C     -1.745526   -0.468770    0.256272
C     -2.806568    0.593569    0.286034
C     -0.388456    0.003973   -0.244309
O      5.801724    0.855526    2.177591
O      2.221734    1.683183   -1.576140
H      0.665356   -4.462053   -0.496561
H      1.545441   -3.592180    0.787348
H      1.981026   -3.298938   -0.939369
H     -4.209219    1.672235   -0.838960
H     -2.576743    2.017531   -1.377582
H     -3.438616    0.422170   -1.799496
H     -4.762570    0.612221    1.273507
H     -4.600401   -0.588918   -0.028234
H     -3.748122   -0.866603    1.586783
H     -1.216540   -0.289776   -2.276849
H     -0.411325    1.237262   -1.984471
H      0.527574   -0.362227   -2.157438
H     -0.716096    2.481779    2.138667
H     -0.858683    0.732975    2.446411
H     -1.369339   -3.709092   -0.756320
H      5.703568    3.014051    0.789292
H      4.040461    3.383278   -0.949455
H     -3.108229   -2.101924    0.053527
H     -2.550314   -1.495907   -1.526923
H     -3.079027    1.609929    2.192204
H     -2.609018    2.698610    0.875420
H     -0.063509    2.152477   -0.167016
H      0.902525    1.211630    1.004225
H      3.969554   -0.910506    1.576553
H      2.503417   -1.866115    0.383176
H      2.234721   -1.308162   -1.238045
H      0.496948   -1.059126    1.323208
H     -1.589052   -0.788823    1.311827
