53

C      5.182688    0.016033   -1.339037
C      5.911116    2.419567   -0.925024
C     -3.045579    3.692474   -0.777088
C     -4.844740    2.323529    0.509367
C      1.502089   -1.005111    2.448838
C      3.355575    0.171072    0.748574
C      4.210057    1.365431    0.412945
C     -2.534672    1.631397    0.393828
C     -2.899209    0.440285    1.227003
C      0.509249   -2.617652   -0.403686
C      1.899080    0.526032    0.606036
C      1.420601   -1.895826    0.213395
C     -3.525906   -1.529167   -0.197249
C     -1.855794   -3.051107   -1.017096
C      5.058752    1.264261   -0.571524
C     -3.432642    2.525259    0.046588
C     -2.578900   -0.792423    0.433228
C     -0.907415   -2.276252   -0.360243
C     -3.170083   -2.648270   -0.916096
C     -1.238076   -1.149132    0.367852
C     -4.189459   -3.437353   -1.589537
C      1.081454   -0.707292    0.980648
O     -3.865349   -4.578917   -2.326146
O     -5.386593   -3.084473   -1.507018
O     -0.271521   -0.426166    0.993184
H      4.176494   -0.220624   -1.781494
H      5.880287    0.115972   -2.197931
H      5.455293   -0.816698   -0.668821
H      5.462206    2.878087   -1.844461
H      6.939851    2.094161   -1.180858
H      5.890846    3.176514   -0.105961
H     -2.682157    4.512391   -0.111754
H     -2.293241    3.380109   -1.522986
H     -3.938623    4.041969   -1.343811
H     -4.837708    2.362568    1.633156
H     -5.220877    1.333245    0.249504
H     -5.517241    3.098314    0.123656
H      0.638372   -1.436079    2.972502
H      2.372860   -1.691178    2.425712
H      1.822799   -0.079026    2.950018
H      3.578693   -0.673660    0.103052
H      3.575296   -0.112714    1.793376
H      4.067266    2.254852    1.019959
H     -1.490947    1.711915    0.095632
H     -3.936342    0.468178    1.571868
H     -2.216605    0.461783    2.124890
H      0.790123   -3.504335   -0.973164
H      1.636725    1.311186    1.345394
H      1.653619    0.822220   -0.431179
H      2.450308   -2.269304    0.108621
H     -4.565898   -1.200040   -0.110465
H     -1.522715   -3.902160   -1.556417
H     -4.553407   -5.293843   -2.537406
