37

C      3.707824   -0.383218    0.575197
C     -1.567385    2.552589   -0.174692
C     -2.060025   -2.205544   -0.590876
C     -2.318174    1.411313    0.481593
C     -2.488559   -1.083787    0.362772
C     -0.156376    2.481515    0.291465
C     -0.584590   -2.359182   -0.530576
C      1.811272    1.113831    0.001712
C      1.564793   -1.386878    0.015402
C      2.425834   -0.202752   -0.249333
C     -1.780788    0.167469   -0.166990
C      0.372897    1.073376    0.458962
C      0.197805   -1.092397   -0.614697
N     -0.398015    0.059272   -0.104419
H      3.404238   -0.521512    1.626219
H      4.256769   -1.277170    0.186518
H      4.315150    0.528139    0.459555
H     -1.572988    2.386342   -1.280386
H     -1.981920    3.539717    0.099801
H     -2.529063   -3.150845   -0.270503
H     -2.435484   -1.945553   -1.602979
H     -3.413921    1.495406    0.324225
H     -2.053135    1.405275    1.562735
H     -2.218214   -1.307638    1.397675
H     -3.577113   -0.914192    0.206214
H     -0.081586    3.067902    1.237473
H      0.462705    3.070544   -0.446935
H     -0.260415   -3.046301   -1.363116
H     -0.308850   -2.899866    0.402351
H      1.887399    1.744969   -0.907585
H      2.422342    1.655869    0.779049
H      1.453824   -1.631012    1.089602
H      1.971394   -2.254261   -0.551253
H      2.776762   -0.284324   -1.320189
H     -2.093504    0.222765   -1.252154
H      0.418656    0.896991    1.576252
H      0.430439   -0.926850   -1.708092
