78

C      6.760158    0.513305    0.636774
C      5.941040   -1.847607    0.572970
C      4.554675   -0.046026    1.635217
C     -4.198815    8.075911    1.656167
C      5.628409   -1.064455   -2.469929
C      4.970474    1.763443   -1.609820
C     -3.606878   -8.225498    0.449490
C     -4.375356   -7.097288    0.500197
C     -2.234828   -8.093461    0.195858
C     -3.807060   -5.834422    0.304093
C     -1.712521   -6.848818    0.009367
C     -2.730766    4.180659    1.182114
C     -4.793858    3.506840    0.260736
C      0.229416    0.670718   -2.193568
C     -3.245639    5.468261    1.327471
C     -5.303441    4.781141    0.404486
C      1.639381    1.138282   -2.317982
C      1.214184    0.672185   -0.042170
C     -4.096179   -1.713548    0.811995
C     -3.918352    0.731666    0.805017
C     -3.317208   -0.579266    0.537433
C     -2.465173   -5.666461    0.053767
C     -3.498426    3.195965    0.650227
C      0.099099    0.054901   -0.799310
C     -4.525777    5.788136    0.945959
C      2.336859    0.807498   -1.016430
C     -2.058698   -0.801819    0.043429
C     -2.365794   -3.174161    0.105061
C     -1.763356    1.594021   -0.041396
C      5.523867   -0.382419    0.522866
N     -3.584577   -2.922670    0.583342
N     -1.811470   -4.443461   -0.146680
N     -1.620243   -2.055469   -0.156747
N     -3.060766    1.832437    0.469375
N     -1.221941    0.325268   -0.268979
O     -1.064248    2.608941   -0.303738
O     -5.052785    7.088360    1.090689
O      3.069822   -0.379075   -1.166715
Si     4.759402   -0.052430   -1.142006
H      7.449710    0.188169    1.426787
H      6.405749    1.536046    0.804094
H      7.244958    0.460044   -0.375542
H      5.214460   -2.471035    0.051173
H      6.041444   -2.208247    1.615231
H      6.954577   -1.876143    0.097368
H      4.030194    0.890316    1.378144
H      5.100375    0.163058    2.592244
H      3.810904   -0.835402    1.763223
H     -3.950758    7.796196    2.720643
H     -4.698904    9.057574    1.683252
H     -3.226505    8.109700    1.108647
H      6.306376   -1.817134   -2.018080
H      6.254013   -0.399883   -3.132955
H      4.878446   -1.561614   -3.119283
H      4.935958    2.348588   -0.674968
H      5.969232    1.904874   -2.107092
H      4.197671    2.060333   -2.338604
H     -4.036877   -9.225124    0.599685
H     -5.458650   -7.149403    0.695887
H     -1.651276   -9.009105    0.164352
H     -4.464013   -4.967490    0.350589
H     -0.630322   -6.813072   -0.182376
H     -1.709909    3.958902    1.492882
H     -5.461101    2.756906   -0.171809
H     -0.522138    1.463562   -2.258805
H      0.063387   -0.148973   -2.928099
H     -2.635837    6.272725    1.755753
H     -6.306713    5.054785    0.111307
H      2.171495    0.697437   -3.190434
H      1.627647    2.269342   -2.380255
H      0.973944    1.733600    0.280406
H      1.520577    0.074775    0.854679
H     -5.087199   -1.538395    1.200267
H     -4.172160    0.733276    1.907425
H     -4.893668    0.790127    0.256306
H      0.253879   -1.039410   -0.861072
H      3.026335    1.647721   -0.726157
H     -0.817935   -4.477207   -0.523448
