49

C      5.023845   -1.123109    0.537551
C     -3.920647   -2.262178   -0.589656
C     -4.249059   -0.901745   -0.160472
C     -2.494814   -2.675287   -0.601767
C     -3.168056    0.000619    0.294115
C     -1.676775   -1.813655    0.333325
C      4.078133    0.463129   -0.993236
C      3.612667    0.688358    1.326324
C      2.664356    0.076611   -1.231559
C      2.239545    0.178456    1.070210
C     -1.718169    2.779354    0.502509
C      0.521207   -0.017202   -0.491011
C     -0.540828    2.379759   -1.451784
C     -1.008101    1.896217   -0.251733
C     -0.699124    0.487326    0.158350
C     -1.888294    3.984189    0.025495
C     -1.826514   -0.422854   -0.259019
Cl    -2.826681    5.398380    0.849055
N      4.524433    0.210102    0.352575
N      1.758004    0.708740   -0.227543
O     -1.910434   -0.426697   -1.635920
S     -1.111281    4.065595   -1.493673
H      6.003778   -1.144053    1.079722
H      5.290133   -1.536024   -0.481245
H      4.301289   -1.833876    0.962407
H     -4.465334   -3.041553    0.026231
H     -4.307081   -2.478834   -1.632000
H     -4.802227   -0.382000   -0.999984
H     -5.029276   -0.948229    0.660413
H     -2.030419   -2.552268   -1.600449
H     -2.350365   -3.742301   -0.332498
H     -3.374707    1.048266   -0.018134
H     -3.064450    0.007270    1.397333
H     -2.203694   -1.900548    1.332166
H     -0.677675   -2.164793    0.502705
H      4.706257   -0.122024   -1.694711
H      4.224942    1.529886   -1.200352
H      3.571182    1.807183    1.235019
H      3.981201    0.460669    2.346810
H      2.316125    0.504391   -2.198014
H      2.487284   -1.016442   -1.235802
H      2.220910   -0.943712    0.943196
H      1.520001    0.504608    1.837990
H     -2.139253    2.484556    1.489310
H      0.331911   -0.025946   -1.608917
H      0.736775   -1.052203   -0.242950
H      0.047187    1.871096   -2.223412
H     -0.650149    0.492352    1.286212
H     -2.027756    0.500422   -1.940781
