31

C      5.189964    0.590319    0.300912
C      4.222833    0.993636    1.176758
C      4.921760   -0.115806   -0.851319
C      2.899590    0.685793    0.908860
C      3.578174   -0.414351   -1.099401
C     -2.086134    0.681783    0.498531
C     -3.499512    0.292295    0.250097
C      2.585198   -0.019237   -0.232532
C     -1.157282   -0.355074   -0.078095
C     -4.465578    1.312951    0.766075
C      1.180920   -0.356419   -0.534726
C     -1.422120   -1.657435    0.562537
N      0.229944   -0.012631    0.236404
O     -4.137390    2.361555    1.334355
O     -5.814135    1.041524    0.582451
O      0.881694   -1.067130   -1.688694
O     -0.626747   -2.129850    1.442852
O     -2.555959   -2.365432    0.185602
H      6.220628    0.833771    0.515845
H      4.463101    1.554929    2.087424
H      5.708726   -0.427917   -1.536580
H      2.092540    0.972741    1.555087
H      3.304064   -0.966322   -1.987550
H     -1.839261    0.730086    1.592648
H     -1.842207    1.705861    0.124233
H     -3.652304    0.062070   -0.800558
H     -3.707772   -0.611527    0.900636
H     -1.323162   -0.361224   -1.175600
H     -6.503819    1.795660    0.550756
H      0.094239   -1.717177   -1.735458
H     -2.939995   -3.037443    0.845682
