41

C      5.878586    1.346817   -0.324674
C      6.455482    0.116905   -0.595054
C     -4.801533    0.721934   -0.833726
C      4.532366    1.371606   -0.011509
C      5.719539   -1.036131   -0.553420
C     -4.390348   -0.544856   -0.218578
C     -3.911133    1.899438   -0.596296
C     -1.383056    0.485720   -0.510419
C      0.373881   -0.906168    0.711958
C      2.349127   -2.124284    0.106546
C     -0.562310   -0.742624   -0.394221
C      3.791618    0.203342    0.028458
C      4.359351   -1.021931   -0.238806
C     -2.318277    0.596238    0.649035
C     -3.239853   -0.554982    0.713505
C      2.439210    0.233520    0.345796
N     -3.091991    1.802847    0.566861
N      3.661731   -2.173335   -0.203658
N      1.762093   -0.921206    0.376417
O     -0.701492   -1.617622   -1.262606
O     -2.484727   -1.743263    0.562951
O      1.918665    1.339300    0.586974
H      6.421568    2.258352   -0.349007
H      7.508408    0.079589   -0.838976
H     -4.921625    0.599068   -1.929596
H     -5.843813    0.989192   -0.486199
H      4.045914    2.317381    0.203067
H      6.153249   -2.019119   -0.760221
H     -4.190474   -1.328437   -1.010953
H     -5.264329   -1.009529    0.348157
H     -3.240988    2.073136   -1.470098
H     -4.517017    2.820900   -0.512817
H     -0.708988    1.369111   -0.545225
H     -1.931229    0.499022   -1.490445
H      0.188491   -1.872650    1.280208
H      0.219022   -0.097524    1.452389
H      1.711482   -2.984316    0.158182
H     -1.762573    0.664788    1.624356
H     -3.587776   -0.625899    1.794967
H     -3.538880    2.060678    1.460583
H     -3.097369   -2.525007    0.629684
