58

C      7.745795    0.352625    1.492351
C      7.362417    0.033752    0.064584
C      6.039629   -0.703791    0.058766
C      4.941613    0.129338    0.681180
C      3.628382   -0.545114    0.709313
C      3.048172   -0.939012   -0.591794
C      2.784141    0.108238   -1.575693
C      1.904140    1.202676   -1.173502
C      0.489044    0.952366   -0.803355
C      0.161888    0.135676    0.369163
C     -1.357270    0.100273    0.599757
C     -2.041957   -0.489390   -0.563035
C     -3.849113   -1.462335    0.810768
C     -5.330095   -1.699502    0.971757
C     -6.116237    1.605110    0.836787
C     -3.547933   -0.592885   -0.385856
C     -5.598336    0.548336   -0.150685
C     -6.164675   -0.790908    0.118016
N     -4.183525    0.666201   -0.178793
O     -5.744505    2.881364    0.416691
O     -7.389281   -0.608908    0.803862
H      7.576564   -0.558582    2.120827
H      7.133965    1.209285    1.828939
H      8.838829    0.612515    1.499913
H      8.155050   -0.622906   -0.341305
H      7.319035    0.955357   -0.514140
H      6.141764   -1.693209    0.504798
H      5.773886   -0.865504   -1.027581
H      4.943252    1.125606    0.196595
H      5.284002    0.328631    1.737110
H      2.898653    0.070941    1.272795
H      3.747556   -1.470703    1.348854
H      2.252832   -1.687687   -0.552995
H      3.895220   -1.586591   -1.101090
H      2.243880   -0.416297   -2.450008
H      3.713864    0.463265   -2.116181
H      1.895981    1.963937   -2.040287
H      2.344078    1.787934   -0.283073
H     -0.014619    0.425854   -1.702034
H     -0.094470    1.925821   -0.774415
H      0.569993    0.592035    1.313767
H      0.460040   -0.928214    0.335215
H     -1.632473    1.151567    0.819504
H     -1.522053   -0.452662    1.552582
H     -1.867170    0.114803   -1.481051
H     -1.644891   -1.502452   -0.761729
H     -3.267171   -2.398299    0.695387
H     -3.472320   -0.971024    1.742689
H     -5.625052   -1.626627    2.037354
H     -5.529594   -2.746709    0.662541
H     -7.221456    1.555320    0.901297
H     -5.689075    1.452343    1.842451
H     -3.999719   -1.083434   -1.271534
H     -6.017356    0.887536   -1.144649
H     -6.448904   -1.323357   -0.824779
H     -3.908975    1.314484   -0.947592
H     -5.924739    3.501287    1.146248
H     -8.090700   -0.388375    0.139870
