41

C     -3.701898   -0.424659    0.306187
C     -2.540975    1.711428    0.209706
C      1.552109    3.639215    0.925484
C      2.362706   -2.601061   -0.813042
C     -0.033747   -2.592093   -0.384869
C     -1.284853   -1.807630   -0.269301
C      2.475069    1.689559   -0.262970
C      2.423998    0.283756   -0.687578
C     -2.435137    0.275974   -0.139950
C      1.519340    2.207118    0.480501
C      1.105615   -1.753316   -0.951742
C     -1.182566   -0.440212    0.350038
C      0.036776    0.260632   -0.022043
C      0.394872    1.397172    0.903233
C      1.303054   -0.525035   -0.104231
O     -0.186151    1.673037    1.964762
O      1.687412   -1.015667    1.169767
H     -4.526829    0.310723    0.180865
H     -3.907479   -1.346605   -0.275741
H     -3.662416   -0.635071    1.409664
H     -1.652461    2.248848   -0.213267
H     -2.769229    1.928586    1.249312
H     -3.395708    2.211963   -0.360902
H      0.855727    3.806695    1.747528
H      2.600312    3.923636    1.137682
H      1.229563    4.246829    0.054522
H      3.247692   -2.114131   -1.235351
H      2.579910   -2.793466    0.268775
H      2.194887   -3.590179   -1.267605
H      0.302035   -3.063062    0.550752
H     -0.202700   -3.404434   -1.116393
H     -2.029455   -2.443800    0.268381
H     -1.640562   -1.632720   -1.334133
H      3.301702    2.320397   -0.556337
H      2.431719    0.268272   -1.799930
H      3.388478   -0.199813   -0.373397
H     -2.413006    0.108929   -1.261280
H      0.966169   -1.481932   -1.993856
H     -1.332296   -0.591446    1.446815
H     -0.114277    0.691807   -1.058520
H      1.052601   -0.748242    1.858463
