63

C      9.366242    0.181253   -1.297068
C      8.098294   -0.674286   -1.306908
C      7.837090   -1.036883    0.089451
C      6.740507   -0.716606    0.722717
C      5.682780    0.024013    0.107974
C     -6.722310    1.488551    0.487236
C      1.459221    0.533883    0.858289
C     -6.086868    0.839474   -0.548567
C      0.497447    1.230217    0.008971
C     -6.048389    2.416499    1.219323
C      4.553655    0.363841    0.732170
C      2.177331    1.180819    1.756012
C     -4.181842    0.376523   -1.995643
C     -4.673567   -1.717180   -0.658591
C     -2.500815   -2.669776    0.152980
C     -0.862702   -0.777220   -0.181608
C     -4.762955    1.121138   -0.856378
C     -3.971180   -2.975276   -0.164685
C     -0.933024    0.703879    0.195682
C     -3.951264   -1.067910   -1.780114
C     -2.266554   -1.257988   -0.335516
C     -4.712631    2.713914    0.924217
C      4.254130    0.032352    2.095408
C     -4.066971    2.070344   -0.110828
C     -2.666575    2.418375   -0.411405
N      3.093436    0.447693    2.549193
O     -4.619505   -3.362590    1.007743
O     -4.089817    3.679643    1.726544
O      5.047747   -0.670253    2.974334
O     -2.453486    3.691606   -0.422576
O     -2.552336   -1.263841   -1.699506
O     -1.744187    1.455051   -0.644698
H     10.023641   -0.242424   -0.526140
H      9.795639    0.087094   -2.324849
H      9.088086    1.223725   -1.048764
H      8.286001   -1.574072   -1.948038
H      7.292152   -0.098226   -1.743103
H      8.621366   -1.619686    0.640414
H      6.690622   -1.057653    1.761147
H      5.702182    0.380115   -0.932445
H     -7.773217    1.264912    0.731227
H      1.595993   -0.530952    0.760857
H     -6.675453    0.112949   -1.092747
H      0.749843    0.976831   -1.061905
H      0.539697    2.316106    0.083122
H     -6.500089    2.962084    2.050870
H      3.790184    0.940806    0.168230
H      2.080744    2.269036    1.900759
H     -4.850845    0.479059   -2.906802
H     -3.234800    0.888024   -2.350623
H     -4.880320   -1.123023    0.224888
H     -5.677670   -2.068410   -1.038681
H     -2.295215   -2.789911    1.230295
H     -1.895279   -3.344303   -0.482175
H     -0.400601   -1.335442    0.654784
H     -0.259092   -0.920231   -1.096297
H     -4.064196   -3.806327   -0.888193
H     -1.210296    0.708716    1.268805
H     -4.226576   -1.656394   -2.710050
H     -2.931788   -0.610819    0.251716
H     -4.060810   -4.005284    1.525227
H     -3.164939    3.942988    1.624106
H      4.904136   -0.548549    3.977399
