55

C      2.079633    0.291019   -0.833385
C      0.927123   -0.654413   -0.609575
C      3.119420   -0.362430   -1.690676
C      1.386937   -1.886007    0.081404
C     -5.928631    1.855245    0.862601
C     -2.120810   -3.278617    0.153693
C     -5.213477    1.571058   -0.408548
C     -2.824715   -2.966067    1.439581
C     -3.854765   -0.423728   -0.291510
C     -4.056092   -0.915935    1.094877
C      3.995109    3.113244   -1.337620
C      5.063598    2.391888   -0.619989
C      4.299437    0.485122   -2.012307
C      0.250083   -2.827566    0.345887
C      5.156986    0.977153   -0.949067
C      4.959711    1.345315    1.323799
N     -6.253987    3.313841    0.832411
N     -0.913566   -2.505953   -0.015325
N      5.085261    2.511711    0.803898
N      4.841525    0.337092    0.317633
O      0.518479   -4.013622    0.975996
O      4.939328    1.077725    2.710898
O     -4.774749    0.404155   -0.758489
O     -3.214781   -1.750419    1.667472
S      3.654137    2.032470   -2.780398
H      1.721717    1.254277   -1.287977
H      2.513779    0.488956    0.165806
H      0.532495   -0.895359   -1.641788
H      0.086253   -0.147961   -0.072588
H      2.606320   -0.639360   -2.652786
H      3.501226   -1.289238   -1.207074
H      2.083877   -2.448425   -0.598480
H      1.922460   -1.613188    1.005232
H     -6.944694    1.380956    0.906145
H     -5.444592    1.654340    1.800342
H     -2.772217   -3.187314   -0.715707
H     -1.734199   -4.358357    0.212800
H     -5.951113    1.938808   -1.225720
H     -4.367552    2.360952   -0.524974
H     -2.045513   -3.251529    2.247645
H     -3.619220   -3.772449    1.636581
H     -3.820309   -1.299790   -1.024803
H     -2.837067    0.097730   -0.378623
H     -5.148101   -1.185058    1.184863
H     -4.004544    0.044954    1.749402
H      3.070784    3.123488   -0.732956
H      4.237056    4.131657   -1.652947
H      6.041089    2.876488   -0.962348
H      4.924384   -0.049097   -2.798562
H      6.252547    0.648931   -1.117169
H     -5.598324    3.807504    0.188677
H     -6.173839    3.698566    1.811971
H      4.577391   -0.649390    0.526738
H     -0.175862   -4.546259    1.498139
H      5.444572    1.702885    3.356901
