31

C     -3.189156   -0.023122    0.749214
C     -2.920008   -2.116421   -0.736871
C      0.753945    1.068801   -1.608074
C      0.042404    2.830343    0.057288
C      4.263484   -1.475905    0.678398
C     -1.016962   -0.751086   -0.077941
C     -2.321809   -0.975401   -0.038054
C     -0.407692    0.397094    0.624174
C      1.024500    0.548675    0.849920
C      2.050398   -0.417249    0.436352
C      0.322881    1.376534   -0.202370
O      1.897175   -1.214759   -0.543868
O      3.279301   -0.541017    1.084232
H     -2.906586   -0.066873    1.831734
H     -4.236471   -0.377154    0.697769
H     -3.150277    0.988475    0.337688
H     -2.685944   -3.056147   -0.196615
H     -2.568110   -2.131551   -1.785449
H     -4.018647   -2.016085   -0.762749
H      0.332872    1.812876   -2.340406
H      1.855614    1.198945   -1.657578
H      0.501755    0.067246   -1.953153
H      0.758286    3.511043   -0.431678
H     -0.967796    3.049309   -0.398192
H     -0.091409    3.033515    1.142814
H      4.055383   -1.813333   -0.347785
H      5.276112   -1.072630    0.724708
H      4.209166   -2.373692    1.345352
H     -0.414919   -1.445806   -0.647974
H     -1.077586    0.816235    1.433226
H      1.350097    1.169140    1.735890
