55

C      5.138238    0.956965   -0.448668
C      0.984959    2.318066    1.836548
C     -4.276556   -0.083336    0.865193
C      3.478360   -2.239980    0.211183
C     -2.805271    0.876190   -1.629644
C     -0.135722    0.595036   -1.681010
C      4.793370   -0.321493   -0.471564
C     -1.877105   -2.111689   -1.277203
C     -3.192086   -1.707512   -0.672157
C     -1.032514    2.622298    0.510262
C      1.317716   -0.362359    0.968677
C     -0.710936   -1.511116   -0.547646
C      2.467911    0.051566    0.139884
C     -2.272186    1.736716    0.559110
C      0.054947    1.793999    1.093435
C     -2.963859   -0.587189    0.351055
C      0.031026    0.346944    0.807230
C      3.727935   -0.774681    0.465174
C     -2.139416    0.530545   -0.308696
C     -0.739914   -0.001164   -0.460884
O      4.134164   -0.595900    1.762349
H      4.694843    1.688648    0.206335
H      5.920129    1.347602   -1.119386
H      1.052903    3.376143    2.091901
H      1.759750    1.697141    2.258772
H     -5.054865   -0.833783    0.600988
H     -4.266154   -0.032879    1.986772
H     -4.584712    0.890332    0.489052
H      4.474165   -2.737448    0.125649
H      2.949011   -2.433040   -0.729640
H      2.977604   -2.714018    1.086915
H     -3.917789    0.837181   -1.436102
H     -2.614643    1.931542   -1.902415
H     -2.623813    0.184399   -2.438858
H      0.637840    1.362501   -1.471785
H      0.328164   -0.206290   -2.289615
H     -0.847243    1.098756   -2.371876
H      5.297964   -0.982155   -1.167406
H     -1.796347   -3.226468   -1.072880
H     -1.825215   -2.045295   -2.372109
H     -3.693772   -2.518204   -0.105215
H     -3.921334   -1.345639   -1.423346
H     -0.822414    2.995073   -0.491230
H     -1.276697    3.507932    1.142951
H      1.607111   -0.300605    2.059066
H      1.146740   -1.446831    0.795019
H     -0.759718   -1.969847    0.487625
H      0.214795   -1.823251   -1.072216
H      2.271414   -0.248822   -0.937385
H      2.740412    1.103126    0.210193
H     -2.433571    1.475420    1.618524
H     -3.153353    2.320373    0.236921
H     -2.384399   -0.985298    1.202065
H     -0.643945   -0.075170    1.627444
H      4.564075   -1.423032    2.102646
