30

C     -2.310619    1.133932    0.492998
C     -1.232602    0.040315   -1.441062
C      1.154360   -1.506943   -0.016204
C     -0.163394   -2.040577    0.429147
C     -0.377723   -0.113526    1.894833
C      1.954468    0.549108   -1.050524
C      1.333383   -0.032128    0.183413
C     -1.128992   -0.999937    0.887820
C      0.101524    0.655356    0.649185
C     -1.169284    0.222213    0.015004
N      2.188317    1.946679   -1.013892
H     -3.133945    1.123166   -0.266180
H     -1.946932    2.186194    0.516886
H     -2.734152    0.804374    1.440317
H     -0.775738   -0.857988   -1.855190
H     -0.866952    0.989323   -1.932259
H     -2.322315   -0.002037   -1.741574
H      1.961547   -2.100183    0.508834
H      1.307965   -1.779482   -1.102787
H     -0.661466   -2.655707   -0.377475
H     -0.045893   -2.771356    1.279493
H     -1.038788    0.481436    2.545837
H      0.419708   -0.667576    2.411857
H      2.963462    0.048084   -1.160126
H      1.408917    0.230445   -1.986318
H      2.102114    0.091823    1.004896
H     -2.068349   -1.407156    1.239416
H      0.222745    1.708861    0.864307
H      3.181559    2.228686   -1.155439
H      1.677078    2.494598   -0.328072
