60

C     -1.082051   -0.778984   -0.860760
C     -3.963993    3.768959    0.580852
C      4.799285    3.504038   -0.976371
C     -1.167949    0.430885    1.343917
C     -5.908682    3.774296   -0.448109
C      3.697259    4.945910    0.294185
C      2.017775   -0.544013   -0.080576
C      2.497998   -4.059425    0.610657
C     -0.370252   -0.074939    0.223628
C     -5.000415    4.584820    0.198899
C      4.766460    4.816006   -0.557006
C      0.808795   -0.925843    0.718964
C     -1.612805   -2.062028   -0.383263
C     -4.222203    2.486383    0.181528
C      3.741726    2.863569   -0.365630
C      1.597297   -3.199402    0.058594
C      0.561967   -2.373566    0.773954
C     -0.794280   -2.812865    0.419392
C     -3.385034    1.279989    0.377997
C      3.424041    1.434830   -0.553877
C      2.806909   -4.113044   -1.541079
C     -2.697293   -3.886819    0.160820
Br    -5.079776    6.450418    0.538764
Br     6.005726    6.167214   -1.092090
N      3.272818   -4.408335   -2.704519
N     -3.661375   -4.736811    0.204217
N     -5.422094    2.529968   -0.445102
N      3.094751    3.752629    0.393085
N     -2.167916    1.383063    1.044402
N      2.312094    0.885031    0.125526
N      3.223339   -4.603574   -0.383608
N     -2.767250   -2.716786   -0.538703
N      1.793283   -3.238136   -1.264170
N     -1.497285   -3.929833    0.734906
O     -3.789477    0.204847   -0.056921
O      4.134618    0.724768   -1.307182
H     -0.277276   -0.999702   -1.674992
H     -1.766378   -0.140528   -1.399261
H     -3.082214    4.077478    1.111060
H      5.510963    3.023256   -1.661480
H     -1.632673   -0.462674    1.913782
H     -0.493606    0.909597    2.139038
H     -6.832330    4.162286   -0.857913
H      3.404213    5.877396    0.796814
H      2.894308   -1.166146    0.088389
H      1.780208   -0.601421   -1.183378
H      2.647054   -4.300225    1.656505
H      0.120314    0.831823   -0.259394
H      1.002661   -0.506758    1.757746
H      0.658294   -2.691712    1.883480
H      2.889523   -3.976114   -3.582950
H     -3.533989   -5.612497    0.762119
H     -5.926345    1.725152   -0.876945
H      2.248706    3.545064    0.973324
H     -1.962040    2.401931    1.392582
H      1.754607    1.502171    0.736653
H      4.004588   -5.311081   -0.276383
H     -3.570951   -2.366907   -1.106544
H      1.319053   -2.744355   -2.033687
H     -1.122701   -4.699250    1.345550
