22

C     -1.900351   -0.548955   -0.889786
C      2.153788    0.088774   -0.411053
C     -0.980792   -0.830319    0.262807
C      1.259706   -0.240144    0.753051
C     -0.008625   -1.908967   -0.026829
C     -0.215353    1.470662   -0.286122
C     -0.115244    0.325228    0.642561
O     -0.172929   -2.858032   -0.831083
O      0.075196    1.388528   -1.511354
O     -0.642868    2.715007    0.158121
O     -0.506159    0.746825    1.914890
O      1.093094   -1.646323    0.765405
H     -1.397181   -0.395609   -1.847826
H     -2.559837   -1.449579   -1.001070
H     -2.568080    0.278744   -0.588406
H      3.106446   -0.477758   -0.250269
H      1.729197   -0.270900   -1.367336
H      2.444166    1.157523   -0.443086
H     -1.613548   -1.194893    1.109568
H      1.776932    0.060638    1.686686
H     -0.701781    3.532113   -0.429018
H     -0.255776    0.057437    2.590149
