59

C      5.869104   -1.941632   -1.816829
C     -6.254005    0.507899   -0.197780
C      6.389096   -1.515938   -0.475714
C      6.943261   -0.108716   -0.516574
C      5.881337    0.897152   -0.931667
C      4.719058    0.896719    0.029883
C      3.725607    1.922945   -0.467076
C      2.515727    2.012616    0.417600
C      1.771200    0.701340    0.508741
C      0.572659    0.952408    1.438590
C     -0.246784   -0.285855    1.606913
C     -1.403444   -0.008602    2.526493
C     -2.293243    1.063718    1.994812
C     -2.887217    0.727832    0.648914
C     -5.900634   -1.780729   -2.044760
C     -3.728448   -0.551270    0.727611
C     -5.124110   -2.022436   -0.752010
C     -5.697583   -0.294568   -2.324060
C     -4.271313   -0.793932   -0.662191
N     -5.164650    0.254572   -1.089503
H      6.558299   -1.593559   -2.633968
H      4.855422   -1.555191   -2.042507
H      5.883148   -3.053199   -1.887699
H     -7.240308    0.574165   -0.736556
H     -6.166135    1.498431    0.327306
H     -6.384008   -0.251105    0.599558
H      5.597584   -1.646328    0.283100
H      7.254555   -2.179596   -0.239180
H      7.408973    0.158627    0.436308
H      7.741355   -0.105139   -1.283756
H      6.361750    1.896878   -0.933114
H      5.553834    0.615049   -1.960994
H      5.078939    1.091385    1.039939
H      4.268617   -0.126241    0.004433
H      4.233893    2.901136   -0.439425
H      3.423008    1.642418   -1.483672
H      2.788696    2.371530    1.408985
H      1.822872    2.749868   -0.032713
H      2.419974   -0.084414    0.947284
H      1.399952    0.360156   -0.458057
H      1.006109    1.241750    2.414962
H     -0.012327    1.762853    0.957725
H      0.354780   -1.128439    2.020113
H     -0.672625   -0.572808    0.604745
H     -1.020493    0.345560    3.522299
H     -2.020483   -0.927287    2.709520
H     -3.151760    1.241613    2.698181
H     -1.764232    2.011101    1.915387
H     -3.534933    1.589007    0.368416
H     -2.109356    0.666991   -0.128731
H     -6.976566   -2.017482   -1.913183
H     -5.430166   -2.387883   -2.822910
H     -3.088648   -1.400792    1.021093
H     -4.531946   -0.354394    1.444875
H     -4.524565   -2.952977   -0.827706
H     -5.851329   -2.141196    0.053725
H     -6.609239    0.202606   -2.663791
H     -4.861063   -0.200237   -3.075812
H     -3.477194   -0.876381   -1.415193
