56

C      0.575757   -2.482394   -0.293989
C     -4.422584   -0.920249    0.248263
C     -3.925028    1.252307    1.218877
C     -1.038336    2.072348    0.152523
C      6.217778    0.185703   -2.158780
C     -2.740499    1.390535   -2.087117
C     -0.668894   -1.534392    1.613862
C     -1.782523   -0.509611    1.629019
C     -3.865353    0.917548   -1.240262
C     -1.422377    0.760514   -1.856109
C      1.233484    0.678005    0.625050
C      5.202492   -1.181644    0.685420
C      0.082795   -1.424599    0.321171
C      2.570028    0.044561    0.685132
C      0.246963   -0.041671   -0.240813
C      4.394787   -1.013590    1.893949
C      4.724175   -0.761366   -0.458789
C     -2.134460   -0.188572    0.216660
C      3.079143   -0.392297    1.846215
C      3.395757   -0.137069   -0.490493
C     -3.536223    0.328780    0.070658
C     -1.068277    0.669335   -0.366866
O      4.906716   -1.437291    2.968338
O      2.376934   -0.269335    3.036235
O      2.974896    0.251543   -1.601930
O      5.450533   -0.896998   -1.633665
H      1.108329   -2.359272   -1.219162
H      0.447409   -3.455149    0.123124
H     -5.401672   -0.687688   -0.201618
H     -4.521143   -1.145830    1.330362
H     -3.940274   -1.760807   -0.304050
H     -4.677354    0.805529    1.901540
H     -3.066930    1.528682    1.854206
H     -4.434022    2.177665    0.814096
H     -0.839044    2.160712    1.227006
H     -2.019872    2.540663   -0.048375
H     -0.304401    2.638605   -0.470321
H      6.994014    0.487385   -1.401544
H      5.602314    1.051309   -2.417724
H      6.790375   -0.186297   -3.030657
H     -2.598587    2.510033   -2.001900
H     -2.978569    1.251705   -3.180227
H     -0.021858   -1.472318    2.492331
H     -1.199267   -2.532784    1.557435
H     -1.434440    0.374690    2.219150
H     -2.669534   -0.890938    2.215447
H     -4.533893    1.812924   -1.054834
H     -4.502753    0.243238   -1.864887
H     -1.385664   -0.296658   -2.228899
H     -0.657518    1.315975   -2.422207
H      1.351198    1.744638    0.314132
H      0.868445    0.749923    1.687512
H      6.178083   -1.644937    0.735187
H      0.730555   -0.154032   -1.256143
H     -2.097027   -1.165303   -0.353349
H      2.385414   -1.001762    3.724522
