91

C     -2.700539   -0.530187    3.515144
C     -0.457948   -3.477927    2.588502
C      4.064913    2.953337   -0.519373
C      4.179513    1.852829    1.666063
C      6.194950    2.124912    0.327875
C     -3.889927   -1.986117   -2.366370
C     -5.300762   -0.176613   -0.467029
C     -4.126831    0.915112   -2.964820
C      5.670916   -1.008154    0.355331
C      5.098502    0.320681   -2.337086
C     -1.893866    5.157974   -0.665953
C     -0.987387    4.594234    0.217698
C     -3.136919    4.594924   -0.779891
C     -1.355101    3.499622    0.946903
C     -3.484466    3.498180   -0.040411
C     -2.829117   -1.816642    1.387734
C      1.126956   -3.916357    0.836686
C     -3.061657    1.782535    1.551991
C      0.254205   -1.077574   -1.546869
C     -0.434985    0.582544    0.203775
C      1.931619    0.300210   -0.238355
C     -3.287851   -0.593586    2.144301
C     -0.329949   -3.484867    1.101952
C     -2.583992    2.934055    0.840420
C     -2.715437    0.562129    1.320311
C     -0.401068   -2.379634   -1.062575
C      1.262433   -4.198089   -0.615333
C     -1.504915   -1.317082    0.967871
C      0.480125   -3.499807   -1.493299
C      4.694604    1.821709    0.265291
C      0.595362   -0.422186   -0.279729
C     -1.852230   -0.001980    0.292781
C     -0.501230   -2.166066    0.412826
O      2.977839   -0.482416   -0.580504
O      1.937450   -3.249625   -1.403878
O      0.739497   -1.487050    0.607292
O     -2.340693   -0.002686   -0.938886
Si    -3.787559   -0.329588   -1.527885
Si     4.519548    0.180076   -0.563911
H     -3.389564    0.017777    4.234528
H     -2.604215   -1.535983    3.966721
H     -1.754673    0.067894    3.588049
H      0.463438   -3.889060    3.117797
H     -1.231509   -4.255607    2.865253
H     -0.638178   -2.526647    3.070755
H      3.277352    3.473728    0.060000
H      4.826902    3.754864   -0.743962
H      3.691620    2.641321   -1.518232
H      4.978913    2.312341    2.319900
H      4.080763    0.816308    2.062038
H      3.280761    2.482853    1.823012
H      6.744823    1.760940   -0.535537
H      6.601084    1.578024    1.229450
H      6.376633    3.192085    0.505395
H     -3.096344   -2.105576   -3.135141
H     -4.868911   -2.133024   -2.874586
H     -3.776865   -2.827664   -1.660861
H     -5.517326   -1.109024    0.086248
H     -5.341625    0.723191    0.144030
H     -6.184109   -0.085836   -1.172957
H     -5.027768    0.495508   -3.455404
H     -4.338809    1.865274   -2.441088
H     -3.240030    0.926467   -3.595137
H      5.313672   -2.032208    0.214386
H      6.685091   -0.810435   -0.030753
H      5.637934   -0.706296    1.424667
H      4.473503    1.072133   -2.858780
H      4.886414   -0.667383   -2.816127
H      6.143802    0.627269   -2.424477
H     -1.640324    6.018946   -1.254890
H     -0.004658    5.060794    0.290611
H     -3.825926    5.058639   -1.478193
H     -0.620382    3.112640    1.633976
H     -4.481274    3.099516   -0.174604
H     -2.800855   -2.672648    2.104196
H     -3.481872   -2.137395    0.575842
H      1.761036   -3.049879    1.107202
H      1.344533   -4.784018    1.491525
H     -3.796593    2.023250    2.368088
H     -0.408217   -0.523545   -2.235128
H      1.177537   -1.277997   -2.122745
H     -0.462746    1.347246   -0.585770
H     -0.115334    0.946258    1.202514
H      2.098785    0.745039    0.758182
H      1.893409    1.184098   -0.941332
H     -4.376173   -0.506058    2.231395
H     -0.952250   -4.246253    0.593415
H     -1.361260   -2.556050   -1.549218
H      1.586833   -5.250291   -0.831830
H     -1.061500   -0.917745    1.969031
H      0.310448   -3.868612   -2.548072
