56

C      4.159434   -1.838521   -1.217527
C      6.873354   -0.106545    0.706167
C      6.144719    0.922131    1.248424
C     -5.969964   -2.023639   -1.884982
C      6.193573   -0.988627   -0.103613
C     -4.604396   -1.974206   -1.746647
C      4.787608    1.048704    0.979611
C     -2.083616   -0.978553    0.609528
C     -2.584134   -1.131939   -0.808246
C      2.307422    1.741756    0.510721
C      2.017619    0.307614   -1.353702
C     -6.758108   -1.185681   -1.127837
C      1.057068    2.280892   -0.075911
C      0.505061    0.160269   -0.974216
C     -3.043539    1.316148    0.511339
C     -0.633219    1.105906    0.966721
C      4.822841   -0.861168   -0.375405
C     -1.927015    0.414900    1.057498
C      2.702489    0.361421   -0.062811
C     -4.072798   -1.081126   -0.850062
C      4.087633    0.160725    0.158213
C     -4.398663    0.766109    0.904572
C     -4.868773   -0.246875   -0.097771
N     -6.190322   -0.314635   -0.250567
N      0.012340    1.293311   -0.278632
O     -4.413178    0.276958    2.196997
H      4.792071   -2.796322   -1.132148
H      4.179658   -1.674956   -2.291114
H      3.187803   -2.238284   -0.806039
H      7.927821   -0.220719    0.902168
H      6.679738    1.615391    1.885751
H     -6.428770   -2.732259   -2.600874
H      6.695758   -1.843603   -0.584888
H     -3.972494   -2.638270   -2.347362
H      4.318387    1.885653    1.477375
H     -1.254056   -1.606230    0.897219
H     -2.958792   -1.404197    1.233450
H     -2.248067   -0.355185   -1.502115
H     -2.269331   -2.111591   -1.183610
H      3.114991    2.484611    0.178219
H      2.302657    1.764696    1.594670
H      1.988532    1.281247   -1.933456
H      2.161063   -0.551516   -2.011273
H     -7.819367   -1.238555   -1.245582
H      1.213825    2.905251   -0.983020
H      0.634645    3.017859    0.674604
H      0.023062    0.012145   -1.986793
H      0.437260   -0.741366   -0.341443
H     -2.927849    2.299863    0.996271
H     -3.004100    1.437326   -0.565671
H     -0.743945    2.110656    1.502555
H      0.158125    0.613807    1.639608
H     -2.177728    0.405886    2.181807
H      2.145308   -0.343143    0.640936
H     -5.121501    1.606378    0.852559
H     -5.158138   -0.369899    2.269742
