54

C      7.023813    1.068823    1.363783
C      6.269806   -0.043786    0.631573
C      5.164580    0.630211   -0.150553
C      4.331665   -0.335685   -0.925854
C      3.667387   -1.343853   -0.027896
C      2.833207   -2.307160   -0.829946
C      1.748916   -1.654890   -1.609544
C      0.788506   -0.890687   -0.699319
C      0.134128   -1.776678    0.289485
C     -0.811758   -1.122754    1.194942
C     -2.082546   -0.533058    0.773668
C     -2.169181    0.545128   -0.216158
C     -5.911308    0.777380   -1.077451
C     -6.648481    0.648325    0.220161
C     -4.321919    3.123040    0.720987
C     -3.589772    1.085076   -0.390792
C     -4.584931    0.084218   -0.841976
C     -5.813508   -0.303899    1.010426
O     -4.128388    3.752239   -0.347733
O     -5.955638   -0.477181    2.246473
O     -4.059254    1.767023    0.739447
O     -4.930805   -0.887047    0.114980
H      6.337430    1.798764    1.822857
H      7.631517    0.619498    2.183832
H      7.741771    1.583619    0.691096
H      7.017271   -0.509949   -0.042363
H      5.919755   -0.806159    1.328457
H      5.671916    1.309393   -0.888564
H      4.546257    1.266418    0.479543
H      3.523767    0.238642   -1.423304
H      4.894863   -0.861567   -1.716222
H      4.478359   -1.948833    0.446841
H      3.129144   -0.856830    0.793453
H      2.404762   -3.064026   -0.151229
H      3.539359   -2.882892   -1.481206
H      1.135442   -2.456410   -2.077447
H      2.102345   -1.013466   -2.425718
H      1.475351   -0.146283   -0.160926
H      0.138872   -0.249638   -1.294441
H      0.990778   -2.203759    0.925806
H     -0.272521   -2.715418   -0.181706
H     -1.091671   -1.890336    2.017058
H     -0.239232   -0.361722    1.866945
H     -2.597853   -0.181857    1.741757
H     -2.758555   -1.413217    0.504750
H     -1.517186    1.387201    0.020469
H     -1.901367    0.209679   -1.269253
H     -6.491204    0.211548   -1.855891
H     -5.772590    1.832630   -1.393720
H     -7.671249    0.222023    0.049399
H     -6.789696    1.615324    0.725530
H     -4.682899    3.594491    1.620949
H     -3.518513    1.859500   -1.217905
H     -4.328943   -0.378927   -1.827550
