48

C     -6.471964   -0.537126    0.388935
C      3.725173   -1.385376   -4.013730
C     -3.527825    3.122947    0.883661
C     -2.491982   -1.459504   -0.918539
C     -3.787014   -1.165690   -0.497281
C      2.595726    0.109751    2.232639
C      1.277550    0.836652    2.143772
C     -0.060002   -0.824395   -0.915316
C      4.498494   -0.070126    0.593433
C      2.752954   -0.816430   -1.357615
C     -0.551824    1.309186    0.626067
C     -1.475555   -0.615201   -0.522948
C      3.150134   -0.173616    0.883300
C      2.266137   -0.550282   -0.099671
C     -1.740764    0.486090    0.266978
C      0.837144   -0.646930    0.265052
C      4.966361   -0.341538   -0.674784
C     -4.076084   -0.072122    0.291272
C      4.090515   -0.722369   -1.678017
C     -3.018701    0.750233    0.665126
N      0.421347    0.392911    1.124942
O      6.333875   -0.234433   -0.960614
O     -5.353545    0.249176    0.727946
O      4.563327   -0.996414   -2.959026
O     -3.241432    1.869963    1.459954
H     -6.577245   -1.330594    1.160357
H     -6.432858   -0.976386   -0.606435
H     -7.401255    0.088645    0.481195
H      2.746434   -0.825487   -3.990521
H      3.528305   -2.471597   -4.024880
H      4.160832   -1.128535   -5.013567
H     -2.962765    3.201252   -0.055362
H     -4.639039    3.158960    0.729071
H     -3.301061    3.950514    1.600443
H     -2.257880   -2.306385   -1.530967
H     -4.587013   -1.822251   -0.803253
H      3.307793    0.756138    2.795397
H      2.502416   -0.842364    2.804073
H      0.773408    0.697551    3.134206
H      1.512399    1.939708    2.104544
H      0.143744   -0.095816   -1.737072
H     -0.003747   -1.877720   -1.309467
H      5.160621    0.223143    1.372249
H      2.031964   -1.109138   -2.103715
H     -0.250445    1.844874   -0.290459
H     -0.854201    1.978311    1.444962
H      0.755123   -1.609593    0.857090
H      6.962424    0.041417   -0.230981
