45

C      3.550917   -0.221018   -1.172698
C      2.495230   -0.219535   -0.085137
C     -6.296627    1.796607   -0.570881
C     -5.127935    1.174996   -0.947698
C      4.681436    0.731753   -0.847775
C     -2.530469   -0.540147   -1.415890
C     -6.519299    0.289856    1.299289
C     -3.585649   -1.573615    0.689589
C     -3.522747   -0.678716   -0.357966
C     -6.979977    1.344003    0.552778
C     -4.642461    0.112548   -0.214074
C      1.421634   -1.220493   -0.536464
C     -5.346074   -0.322186    0.907841
C     -1.251528   -0.754913   -1.150997
C      0.324897   -1.324258    0.430163
C     -0.193726   -0.639465   -2.144274
C      6.423214    1.152400    0.860046
Br    -8.606305    2.238000    1.045442
N      6.661531    2.341556    0.394909
N      7.287237    0.650232    1.856527
N      5.336563    0.371541    0.395799
N     -4.676247   -1.357823    1.443977
N      1.040524   -0.853255   -1.864468
N     -0.909227   -1.115255    0.170647
O      0.649469   -1.677243    1.733168
O     -0.559603   -0.278180   -3.457520
H      3.879252   -1.245119   -1.340753
H      3.063695    0.160233   -2.088177
H      1.996172    0.774123   -0.045461
H      2.866138   -0.571004    0.885704
H     -6.684684    2.630616   -1.140050
H     -4.555503    1.495007   -1.823493
H      4.289485    1.748297   -0.865595
H      5.436341    0.631358   -1.651066
H     -2.782892   -0.264875   -2.432199
H     -7.042868   -0.078677    2.185873
H     -2.865798   -2.352326    0.895334
H      1.902764   -2.246705   -0.558399
H      6.076694    2.768340   -0.328008
H      8.034217    1.231094    2.290013
H      7.186446   -0.332958    2.179924
H      5.040088   -0.443790    0.966931
H     -4.977458   -1.894079    2.311891
H     -0.082769   -1.725591    2.438853
H      0.095904    0.288667   -4.003207
