35

C      3.053754   -0.112519    1.009988
C      3.365841    0.050743   -0.426897
C      1.784145    0.448606    1.494981
C      2.511437    0.995224   -1.176606
C     -2.198458   -0.290375   -1.051073
C     -2.612541    0.861912    0.936744
C     -3.410613    0.117161   -1.558766
C     -3.824923    1.277303    0.445986
C     -0.079381   -1.787319    0.607558
C     -1.741902    0.053121    0.199713
C     -4.236853    0.906161   -0.814018
C      0.679681    0.638171    0.498255
C     -0.449638   -0.377221    0.718187
C      1.079016    0.883713   -0.856576
Cl    -5.791086    1.428416   -1.465673
N      0.013329   -2.426268   -0.647560
O      0.309161    1.008649   -1.767652
O      0.900735   -2.012743   -1.612308
O     -0.691407   -3.405358   -0.980744
H      3.899915    0.383130    1.581128
H      3.178594   -1.195372    1.317476
H      3.322845   -0.948444   -0.929547
H      4.435399    0.384529   -0.596741
H      1.980715    1.379566    2.111278
H      1.377789   -0.260183    2.280314
H      2.803009    2.045950   -0.866719
H      2.710842    0.950584   -2.268035
H     -1.601030   -0.905450   -1.664129
H     -2.308337    1.164411    1.927893
H     -3.728083   -0.186589   -2.567624
H     -4.509170    1.906593    1.011670
H      0.911279   -1.900936    1.149756
H     -0.740269   -2.445527    1.257996
H      0.171403    1.609516    0.841048
H     -0.565197   -0.239156    1.860697
