45

C      3.772765    0.044560    1.233772
C      2.385708    0.474447    1.621801
C     -6.249478   -0.268527   -2.248908
C     -4.949586   -0.573461   -1.914429
C      4.452174    1.074763    0.386820
C     -2.081856   -1.098543   -0.598045
C     -6.746451    0.395103   -0.019001
C     -3.502485   -0.237412    1.334562
C     -3.308275   -0.605447    0.007313
C     -7.159316    0.213225   -1.326721
C     -4.519115   -0.397152   -0.608901
C      1.469700    0.736980    0.462563
C     -5.442442    0.086487    0.304216
C     -0.947921   -0.512447   -0.244137
C      0.138974    1.144543    1.005805
C      0.319614   -0.958028   -0.810297
C      5.976287   -0.542192   -0.737037
Br    -8.964008    0.624977   -1.849226
N      5.134983   -0.807307   -1.672073
N      7.116207   -1.383481   -0.506599
N      5.782068    0.588491    0.090415
N     -4.783249    0.170554    1.481914
N      1.404409   -0.355741   -0.456789
N     -0.961669    0.563386    0.674004
O      0.164927    2.215336    1.913431
O      0.375608   -2.021379   -1.725030
H      4.339414   -0.090943    2.177156
H      3.699558   -0.912655    0.676036
H      1.983466   -0.365822    2.262994
H      2.432939    1.367592    2.292515
H     -6.573437   -0.409007   -3.268465
H     -4.212720   -0.950309   -2.613091
H      4.533088    2.026842    0.986085
H      3.905333    1.301664   -0.547165
H     -2.038831   -1.906978   -1.312161
H     -7.466967    0.769065    0.689376
H     -2.710776   -0.298065    2.063971
H      1.932963    1.591853   -0.105117
H      4.321176   -0.198394   -1.830866
H      7.063016   -2.201043    0.113938
H      8.020796   -1.170708   -0.974267
H      6.616708    1.080165    0.495389
H     -5.224035    0.502178    2.358506
H     -0.678844    2.474483    2.406927
H      1.179582   -2.663165   -1.671183
