37

C      5.023245    0.701299   -0.181130
C      3.827702   -0.217037    0.066294
C      2.545020    0.619728    0.162221
C      1.418598   -0.376138    0.407661
C      0.079979    0.361751    0.517826
C     -3.155614   -0.819026   -0.187769
C     -2.403338   -2.109617   -0.552661
C     -2.636213    1.088446    1.349593
C     -2.337682   -0.311482    0.934984
C     -0.948162   -0.723540    0.759728
C     -0.940453   -1.680467   -0.415225
C     -2.528714    2.137085    0.369041
O     -0.609628   -1.068833   -1.612106
O     -2.342744    1.955155   -0.843546
O     -2.641508    3.473834    0.804115
H      5.855677    0.043559   -0.503958
H      5.291437    1.231275    0.747883
H      4.739305    1.399662   -1.000798
H      3.970856   -0.825232    0.973471
H      3.781679   -0.904403   -0.796430
H      2.425972    1.121455   -0.829992
H      2.609781    1.317393    0.998708
H      1.421539   -1.060209   -0.463281
H      1.663880   -0.893053    1.353845
H      0.099224    1.076297    1.332492
H     -0.018521    0.866583   -0.458329
H     -4.175430   -1.117640    0.163358
H     -3.248140   -0.166810   -1.066553
H     -2.582666   -2.834597    0.260487
H     -2.664080   -2.445098   -1.554859
H     -3.695796    1.080292    1.756735
H     -2.024877    1.290238    2.282545
H     -2.711607   -0.976579    1.839352
H     -0.543918   -1.262726    1.679558
H     -0.266341   -2.527870   -0.235563
H     -0.120486   -1.672615   -2.193496
H     -2.157974    4.228921    0.293866
