43

C     -1.847267    2.915078    0.737158
C     -2.301672   -2.919491   -0.631881
C      3.778098   -0.417924    0.206729
C     -2.467190    0.552651    0.193197
C     -1.881069   -0.634920    0.918375
C      1.001756    2.087036    0.019517
C      2.262941    1.526012    0.690329
C     -1.475789    1.667329   -0.001425
C     -1.023843   -2.188294   -0.854950
C     -0.113996    1.151737    0.324083
C     -0.677049   -1.210493    0.237511
C     -1.010598   -1.337463   -2.056454
C      1.515878   -0.402878   -0.676198
C      2.349895    0.032530    0.534158
C      0.062677   -0.136495   -0.477645
O     -1.334338   -1.709863   -3.206898
O      1.797766   -1.698289   -1.050987
O      1.903568   -0.632487    1.682234
O     -0.587028   -0.059807   -1.732296
H     -2.832047    3.258596    0.317572
H     -1.127028    3.704792    0.501143
H     -2.013473    2.762280    1.809826
H     -2.304799   -3.335247    0.390777
H     -2.290990   -3.817215   -1.317641
H     -3.187641   -2.341222   -0.886892
H      3.998054    0.015738   -0.799820
H      3.707283   -1.523131    0.044223
H      4.492780   -0.130620    0.978818
H     -2.959335    0.233389   -0.731643
H     -3.277997    0.952165    0.856375
H     -1.689871   -0.358792    1.979818
H     -2.678723   -1.410088    0.951928
H      1.185046    2.254932   -1.043635
H      0.811387    3.063693    0.525448
H      2.223695    1.725301    1.795987
H      3.178670    2.001835    0.287712
H     -1.484753    1.910481   -1.097028
H     -0.195479   -2.952496   -0.879943
H     -0.039002    0.884612    1.414372
H     -0.075655   -1.734253    1.017755
H      1.867418    0.258254   -1.517416
H      2.343109   -1.752823   -1.897369
H      2.396611   -0.254150    2.445077
