35

C      2.901786    1.431858   -1.555991
C     -3.556120   -1.485773   -0.678387
C      3.214026    0.096524    0.937257
C      3.558636   -1.373357    1.107062
C     -2.199627    0.513572   -1.157058
C     -1.967991   -0.615911    0.944082
C      1.732106    0.874582   -0.837925
C      1.868004    0.246043    0.332850
C     -0.789792    0.468418   -0.726708
C     -0.642926   -0.143029    0.416049
C      0.391505    1.000301   -1.396959
C      0.692070   -0.286682    1.006099
C     -3.966922    0.654301    0.504668
C     -2.962386   -0.222430   -0.095651
O      4.824149   -1.509559    1.674677
O      0.274922    1.602518   -2.515463
O      0.793483   -0.890606    2.124256
O     -5.182940    0.350927    0.513238
O     -3.577879    1.849848    1.079988
H      3.494454    0.614372   -2.015572
H      3.512510    2.097601   -0.908408
H      2.537272    2.061090   -2.386792
H     -3.799036   -2.156922    0.176407
H     -4.493963   -1.298734   -1.229226
H     -2.788431   -1.968352   -1.311437
H      3.211963    0.561932    1.955685
H      4.006591    0.526737    0.295072
H      3.627337   -1.853495    0.096016
H      2.855806   -1.910194    1.743400
H     -2.538830    1.557744   -1.234310
H     -2.306391   -0.007229   -2.130936
H     -1.871076   -1.715702    1.066089
H     -2.176447   -0.196424    1.949552
H      5.535281   -1.491710    0.984521
H     -4.211143    2.617740    1.273854
