34

C     -1.970221    3.287655   -0.627126
C     -2.249649   -3.885196   -0.046351
C     -1.746313    2.992282    0.707405
C     -1.530591    2.380301   -1.564037
C     -2.357669   -3.148875    1.115243
C     -1.383273   -3.410407   -1.008799
C     -1.102139    1.819393    1.032131
C     -0.886591    1.207602   -1.236853
C     -1.645975   -1.990708    1.330398
C     -0.645198   -2.241656   -0.828034
C      2.559038    0.995107    0.605375
C     -0.662692    0.911925    0.086156
C     -0.792937   -1.547153    0.351461
C      3.976561    0.909425    0.141517
C     -0.002036   -0.305893    0.529431
N      4.416136   -0.052549   -0.589657
O      4.880942    1.896232    0.499504
O      1.564898   -0.152344   -1.578730
S      1.705596   -0.490526   -0.080475
H     -2.478191    4.210619   -0.907293
H     -2.828790   -4.809637   -0.197834
H     -2.088160    3.698719    1.448927
H     -1.691511    2.582643   -2.631083
H     -3.034523   -3.486703    1.910486
H     -1.260278   -3.953833   -1.945188
H     -0.955426    1.644564    2.109999
H     -0.567536    0.521692   -2.042731
H     -1.734923   -1.411211    2.251787
H      0.033279   -1.898837   -1.620382
H      2.540007    0.975392    1.693969
H      2.116990    1.910910    0.230909
H      0.133972   -0.234299    1.660724
H      3.850921   -0.852023   -0.928137
H      5.836283    1.927389    0.127288
