71

C     -4.152683   -0.219459   -0.954383
C     -3.863192    1.175663   -1.432629
C     -5.194421   -0.903765   -1.814504
C     -2.816658    1.802015   -0.533349
C      9.966874   -1.543242   -0.267804
C      9.152333   -2.040037   -1.165636
C      6.837756    1.608737    0.213762
C     -1.479010    0.570048    1.838828
C      4.479263   -1.253615    0.627892
C      7.914137    1.518492   -0.809829
C     -0.358691    0.370487    2.822431
C      3.628601   -1.431226    1.877903
C      1.415230    1.435294    1.706182
C      2.153219    0.169835    1.283007
C     -9.159430   -0.839538   -1.543332
C     -8.593967    0.183373   -0.602679
C     -6.500869   -0.148203   -1.810418
C     -1.554272    1.038747   -0.542363
C      5.767146    0.631430   -0.055867
C      9.645196   -0.165005    0.010212
C      8.213601   -0.967128   -1.539077
C     -7.121974   -0.000492   -0.476463
C     -8.166499   -0.981024    1.274874
N     -0.996768    0.518081    0.488416
N      5.501947   -0.270957    0.814141
N     -9.052554   -0.206330    0.719866
N     -7.070962   -1.159827    0.377364
N      8.516815    0.203085   -0.809044
O     -0.896855    0.859271   -1.776169
O      5.052321    0.685439   -1.237292
O     10.203828    0.630210    0.808809
O      7.299488   -1.086525   -2.371426
O     -8.243157   -1.563720    2.546102
O      0.644841    1.267775    2.798918
O      2.989605   -0.278128    2.280074
S     -7.776379   -1.062393   -2.724628
H     -4.455325   -0.149727    0.101905
H     -3.232880   -0.824639   -1.000258
H     -3.499603    1.206232   -2.481781
H     -4.764627    1.818275   -1.363306
H     -4.810148   -0.893027   -2.857014
H     -5.292748   -1.940766   -1.499485
H     -3.238910    1.931546    0.470330
H     -2.555087    2.835881   -0.888190
H     10.768670   -2.131173    0.183639
H      9.148061   -3.048436   -1.575497
H      6.369683    2.619900    0.194528
H      7.256945    1.445530    1.233055
H     -2.039577    1.507998    2.055342
H     -2.250794   -0.244626    1.953205
H      5.008108   -2.234187    0.397305
H      3.810714   -1.050016   -0.226492
H      8.695951    2.274913   -0.584795
H      7.482695    1.694184   -1.831762
H      0.083434   -0.657779    2.670924
H     -0.820414    0.352045    3.856477
H      4.254145   -1.867088    2.703682
H      2.874754   -2.224603    1.612454
H      2.244512    2.156660    1.971482
H      0.844445    1.817544    0.847498
H      2.699577    0.481105    0.349640
H      1.453489   -0.654630    1.053520
H     -9.394105   -1.783753   -1.039849
H    -10.056144   -0.437715   -2.055116
H     -8.896932    1.218655   -0.855181
H     -6.403327    0.838697   -2.269502
H     -6.743060    0.874695    0.100481
H     -6.412621   -1.953383    0.371791
H     -0.231115    0.099317   -1.886317
H      4.798146   -0.155310   -1.733904
H     -9.079773   -1.469686    3.113179
