23

C     -2.006773   -0.751716    0.128056
C     -2.263491    1.678665    0.353137
C      2.672938   -0.607711   -0.311779
C      1.978272   -0.231766    0.998670
C      1.802744    0.118035   -1.278370
C      0.535466   -0.478742    0.632581
C      0.423360   -0.253725   -0.863729
C     -1.296449    0.561856    0.150459
O      2.146605    0.835458   -2.180776
O     -0.308287    0.506657    1.148115
O     -0.488135    0.754434   -0.993327
H     -1.734898   -1.406961   -0.704015
H     -3.118190   -0.586474    0.045395
H     -1.810234   -1.320744    1.074321
H     -2.402638    1.827414    1.454930
H     -1.953851    2.620359   -0.118244
H     -3.271360    1.376673   -0.022132
H      2.479915   -1.685271   -0.458605
H      3.712424   -0.309758   -0.341129
H      2.328901   -0.836496    1.836924
H      2.174758    0.860837    1.145770
H      0.231311   -1.488424    0.907055
H      0.167613   -1.182601   -1.405161
