63

C     -7.368608    0.342670   -2.969804
C      6.924115    3.029967    1.233808
C     -9.265489   -1.272889    1.321326
C      8.790994   -3.517491   -0.233021
C     -8.106373   -1.782586    1.844322
C     -9.213704   -0.055778    0.681408
C      7.548367   -3.936906    0.166401
C      8.922811   -2.263530   -0.787623
C      0.454274    3.034296   -0.164830
C     -6.918596   -1.108146    1.739887
C     -8.003351    0.629157    0.576406
C      6.456078   -3.111657    0.011976
C      7.805291   -1.437448   -0.938023
C     -0.804406    2.437641   -0.171154
C      1.579457    2.253089    0.004733
C     -5.528639    0.826559    1.030466
C      5.330026   -1.017605   -0.683325
C     -6.827719    0.131996    1.095898
C      6.548530   -1.843902   -0.541308
C     -0.924547    1.083227   -0.009967
C      1.439913    0.885220    0.166333
C     -4.743356    0.340639   -0.160607
C      5.018551   -0.182878    0.530377
C     -2.229209    0.389143   -0.006606
C      2.636428    0.067977    0.345292
C     -5.486018    0.601907   -1.407654
C      6.104911    0.766348    0.868311
N      0.217252    0.382478    0.150616
N     -3.460557    1.045305   -0.166918
N      3.803693    0.582346    0.356749
O     -2.241403   -0.858315    0.148197
O      2.540839   -1.308827    0.510363
O     -4.975772    1.402730   -2.263065
O      7.264109    0.350699    1.126733
O     -6.701428    0.055302   -1.752326
O      5.881486    2.124078    0.909857
H     -7.040923   -0.381083   -3.728190
H     -8.469039    0.190631   -2.828919
H     -7.148572    1.380633   -3.318025
H      6.508390    3.906184    1.787077
H      7.677901    2.496478    1.854595
H      7.411283    3.384684    0.282434
H    -10.222382   -1.808596    1.401269
H      9.647808   -4.153314   -0.116723
H     -8.123805   -2.729789    2.347417
H    -10.124468    0.354059    0.265457
H      7.471952   -4.931289    0.601114
H      9.905221   -1.945150   -1.097903
H      0.496752    4.106015   -0.295811
H     -6.021976   -1.525320    2.156803
H     -7.990229    1.585905    0.076376
H      5.499729   -3.507296    0.350101
H      7.939651   -0.460598   -1.381680
H     -1.689312    3.026200   -0.301306
H      2.571389    2.709490    0.011433
H     -5.726863    1.933401    0.942193
H     -4.941548    0.698731    1.967847
H      4.427039   -1.634611   -0.888370
H      5.455292   -0.343665   -1.580886
H     -4.585943   -0.752982   -0.014479
H      4.935868   -0.903003    1.390513
H     -3.472804    2.069673   -0.295598
H      3.141638   -1.830200    1.128108
