91

C     -3.677429    0.912666   -2.911277
C     -0.725957   -1.473183   -3.712206
C      5.807329   -1.158058   -0.757571
C      6.293506   -0.325625    1.518784
C      6.864081    1.020061   -0.436925
C     -3.341131   -3.048723    1.742743
C     -5.276494   -0.801406    1.313134
C     -3.520917   -0.840801    3.715438
C      4.121581    2.171569   -1.231043
C      3.987592    1.773786    1.829234
C     -1.422334    4.951413    2.479451
C     -1.509179    5.267941    1.159992
C     -1.948985    3.743111    2.911503
C     -2.108475    4.402484    0.278696
C     -2.556998    2.874632    1.991787
C      0.968036   -3.245876   -0.390566
C      0.465149   -4.259328   -1.370627
C     -3.206422   -1.100338   -1.524845
C     -3.316598    2.338515   -0.277570
C      0.296593   -1.309849    0.870311
C     -0.694171    0.870631    0.150647
C      1.707328    0.630093    0.106571
C     -3.858805    0.292851   -1.514865
C     -0.854872   -2.380262   -2.493881
C     -2.644240    3.192461    0.665447
C     -0.269839   -2.382440   -0.041470
C     -3.090365    1.079071   -0.513510
C      0.083647   -3.501925   -2.591345
C     -1.842867   -0.691834   -1.132132
C      5.807132    0.057213    0.119965
C      0.416405   -0.154840   -0.052768
C     -2.069594    0.192518    0.060535
C     -0.715101   -1.610895   -1.212199
O      0.568308   -3.829442   -3.695450
O      2.846623   -0.155331   -0.033854
O      0.418350   -0.723011   -1.316808
O     -2.325762   -0.408743    1.173681
Si    -3.536339   -1.198726    1.827009
Si     4.182676    0.927503    0.167364
H     -4.473207    1.696102   -3.006449
H     -3.720956    0.149896   -3.700715
H     -2.724649    1.478871   -2.936631
H     -1.658514   -1.438981   -4.303731
H     -0.415173   -0.458115   -3.482080
H      0.010805   -1.983594   -4.405653
H      6.850912   -1.476450   -0.881741
H      5.148266   -1.966910   -0.373348
H      5.407167   -0.857921   -1.758767
H      5.845340   -1.278859    1.811759
H      6.116719    0.488235    2.244025
H      7.392162   -0.441794    1.451760
H      6.807257    1.030864   -1.549140
H      7.856202    0.669646   -0.095254
H      6.658589    2.037921   -0.079533
H     -4.163069   -3.549446    2.298899
H     -2.407557   -3.382484    2.274370
H     -3.276492   -3.455326    0.739791
H     -5.606178   -1.273616    0.392131
H     -5.408936    0.279292    1.391137
H     -5.942679   -1.245541    2.114178
H     -4.346399   -1.440556    4.171168
H     -2.565753   -1.226807    4.084720
H     -3.603026    0.229707    3.850159
H      3.325616    2.922758   -1.082011
H      5.109706    2.638015   -1.421174
H      3.849936    1.578773   -2.146934
H      4.950287    2.156508    2.165120
H      3.695360    0.970525    2.554466
H      3.155298    2.492325    1.838333
H     -0.953273    5.601884    3.225235
H     -1.098727    6.220602    0.795960
H     -1.884458    3.487628    3.953710
H     -2.151833    4.703236   -0.779325
H     -2.931858    1.971516    2.413055
H      1.226203   -3.781168    0.548514
H      1.801373   -2.641254   -0.729813
H     -0.469189   -4.707276   -0.961679
H      1.201388   -5.048880   -1.596085
H     -3.289129   -1.439297   -2.603900
H     -3.661172   -1.798637   -0.848230
H     -4.139121    2.843687   -0.874687
H      1.344477   -1.563502    1.198580
H     -0.243541   -1.162362    1.800150
H     -0.493414    1.333954    1.113203
H     -0.646411    1.546900   -0.721835
H      1.779265    1.424417   -0.661253
H      1.771018    1.105628    1.124385
H     -4.930223    0.259515   -1.336978
H     -1.891399   -2.829167   -2.542470
H     -0.936786   -3.092186    0.409481
H     -1.591688    0.123845   -1.956252
