71

C     -4.475850    0.581113    1.785750
C     -3.610280    1.454112    1.015405
C     -5.785946    0.084399    1.427930
C     -2.986703    1.055121   -0.254052
C     10.006924    1.901887    1.418698
C      9.483543    1.146506    2.364885
C      6.430335    0.394728   -0.869309
C     -0.270283    1.020594   -0.905241
C      3.773609   -1.138344    0.412696
C      7.740882   -0.298177   -0.606877
C      1.163169    0.737933   -1.336421
C      3.758986   -1.547590   -1.043785
C      0.919724   -1.431083   -2.248569
C      1.544560   -2.331300   -1.240495
C     -7.457035   -0.599574   -2.140375
C     -8.315629   -0.724876   -0.908800
C     -6.098768   -0.720895    0.238845
C     -2.140171   -0.181580   -0.091141
C      5.635763    0.502226    0.361950
C      9.434649    1.491278    0.146253
C      8.537456    0.191661    1.792930
C     -7.554122   -1.170069    0.241497
C     -8.833654    0.665331    0.765138
N     -0.920937   -0.144620   -0.398989
N      4.645943   -0.120658    0.761397
N     -8.908623    0.525793   -0.514784
N     -8.192927   -0.459691    1.351105
N      8.507470    0.413057    0.380255
O     -2.695776   -1.355051    0.393328
O      6.104608    1.521893    1.264626
O      9.698485    1.987040   -0.970718
O      7.859161   -0.680967    2.413879
O     -9.339882    1.801395    1.406749
O      1.320515   -0.168979   -2.308689
O      2.873243   -2.538546   -1.315499
S     -6.024893    0.229350   -1.337193
H     -3.819041   -0.307208    2.199429
H     -4.632773    1.103995    2.833742
H     -4.084754    2.480130    0.822277
H     -2.730516    1.758844    1.703789
H     -6.507277    0.982613    1.490505
H     -6.134561   -0.558038    2.336257
H     -2.225791    1.929918   -0.464850
H     -3.513668    0.998095   -1.170983
H     10.730971    2.677962    1.600385
H      9.713811    1.212885    3.428275
H      6.685434    1.463776   -1.203447
H      5.940095   -0.045724   -1.734117
H     -0.226651    1.779338   -0.097481
H     -0.780832    1.453169   -1.794087
H      2.759779   -0.965848    0.838112
H      4.105879   -2.066762    1.026859
H      7.506833   -1.311419   -0.184335
H      8.318173   -0.418293   -1.544034
H      1.495121    1.751578   -1.775302
H      1.740513    0.663120   -0.420640
H      4.782312   -1.993582   -1.222582
H      3.681959   -0.656963   -1.662487
H     -0.219283   -1.462754   -2.160165
H      1.035421   -1.885947   -3.299866
H      1.198594   -2.071083   -0.190852
H      1.052403   -3.344490   -1.390953
H     -7.196995   -1.598198   -2.491335
H     -7.955779    0.051810   -2.855437
H     -9.110229   -1.493191   -1.127739
H     -5.472220   -1.615756    0.180641
H     -7.612419   -2.262960    0.465063
H     -8.199196   -0.694132    2.353571
H     -2.113834   -1.931342    1.006373
H      5.634170    1.676241    2.140933
H     -9.673191    2.606800    0.912104
