63

C      6.475455   -1.874339    2.694155
C     -5.281864   -2.234401    2.236424
C      8.630005    2.135420    0.688400
C     -8.640163    3.073373    0.113407
C      7.463701    2.837725    0.401476
C      8.660724    0.779521    0.443315
C     -7.974055    2.650241    1.242647
C     -7.961771    3.049939   -1.082025
C     -0.005992   -3.015009   -2.860964
C      6.355925    2.211751   -0.115183
C      7.543595    0.165266   -0.074610
C     -6.670838    2.215060    1.192166
C     -6.670078    2.616249   -1.119323
C      1.001385   -2.376206   -2.170917
C     -1.303544   -2.598909   -2.653678
C      5.225520    0.200325   -0.911103
C     -4.575274    1.721190   -0.123128
C      6.400104    0.864567   -0.353653
C     -5.972237    2.183041    0.004909
C      0.767198   -1.347574   -1.290011
C     -1.541525   -1.572501   -1.775153
C      4.225618   -0.290423    0.094372
C     -4.541849    0.271460   -0.510657
C      1.820084   -0.658011   -0.547108
C     -2.915187   -1.116668   -1.539530
C      4.879085   -1.268008    0.996797
C     -5.212268   -0.548603    0.498168
N     -0.520542   -0.988717   -1.132205
N      3.172498   -0.994463   -0.660968
N     -3.164188   -0.169964   -0.733147
O      1.506266    0.285400    0.235778
O     -3.960425   -1.728538   -2.207433
O      4.504922   -2.476295    0.986906
O     -6.441955   -0.423426    0.686111
O      5.903493   -0.900726    1.868611
O     -4.557856   -1.488105    1.288793
H      6.014253   -2.870428    2.567450
H      6.290436   -1.599535    3.770603
H      7.558701   -1.972823    2.526183
H     -6.300074   -2.507007    1.893099
H     -5.446363   -1.597278    3.153013
H     -4.773403   -3.171477    2.527908
H      9.490199    2.659461    1.096907
H     -9.670688    3.420379    0.137118
H      7.494895    3.915086    0.616073
H      9.572073    0.216845    0.665001
H     -8.526410    2.675462    2.180392
H     -8.492590    3.386155   -1.976163
H      0.182520   -3.826321   -3.555319
H      5.461579    2.786903   -0.328346
H      7.605030   -0.904937   -0.259859
H     -6.158754    1.891244    2.086626
H     -6.153803    2.605456   -2.069994
H      2.001581   -2.707411   -2.339851
H     -2.143942   -3.079890   -3.183521
H      5.512312   -0.700876   -1.527262
H      4.694017    0.865314   -1.627837
H     -4.041069    2.366323   -0.867650
H     -4.093238    1.824330    0.874723
H      3.778847    0.506628    0.712698
H     -5.041476    0.203012   -1.516020
H      3.455206   -1.767773   -1.298970
H     -4.893804   -1.806481   -1.817661
