58

C      4.602597    2.398387   -0.284135
C      3.409532   -0.755923    1.474582
C     -1.248593   -3.836007   -0.605354
C     -0.566073   -0.595692    2.988869
C     -1.193401    4.596193   -0.407664
C     -2.601200   -1.887290   -1.715351
C      4.451319    1.232728    0.618693
C      0.458411   -2.567558   -1.787182
C      0.533639   -1.337204   -2.625657
C     -1.874595    1.536693    2.975474
C     -2.160574   -1.276903    0.625464
C      3.460379    0.374603    0.515091
C     -0.481770   -2.506610   -0.636694
C     -1.373548    0.265122    2.420568
C     -0.759759    3.223445   -0.063159
C      0.407133   -0.132419   -1.702544
C     -0.988295   -0.094933   -1.130040
C     -1.103493    0.832792    0.046120
C      2.463017    0.555665   -0.517733
C     -3.265033    0.848397    1.269043
C     -1.517971   -1.422156   -0.735765
C     -1.968802    0.148737    1.074305
O      0.367382    3.023085    0.462027
O      2.519432    1.515675   -1.322312
O     -4.331914    0.568535    0.668703
O     -3.042064    1.831197    2.216003
O     -1.545738    2.108508   -0.291463
O      1.386384   -0.308409   -0.690161
H      5.499247    3.015619    0.024062
H      3.752884    3.106420   -0.176674
H      4.762199    2.098746   -1.355390
H      3.069189   -1.668204    0.927448
H      2.824286   -0.554521    2.372760
H      4.452884   -0.987840    1.811138
H     -1.222315   -4.313629   -1.611152
H     -2.313622   -3.674080   -0.346159
H     -0.825810   -4.526754    0.129101
H     -0.218610   -1.521766    2.549468
H     -0.192432   -0.390678    3.994687
H     -2.158638    4.859252    0.073178
H     -1.280667    4.643467   -1.520742
H     -0.386795    5.309051   -0.141417
H     -2.875597   -1.007322   -2.341086
H     -3.522650   -2.194384   -1.187051
H     -2.239904   -2.686268   -2.378641
H      5.227088    1.112450    1.402854
H      0.244590   -3.434676   -2.473195
H      1.484977   -2.768434   -1.375758
H      1.531955   -1.304184   -3.115523
H     -0.213170   -1.300389   -3.441480
H     -1.080926    2.298121    2.823302
H     -2.198452    1.463008    4.032680
H     -3.276454   -1.438794    0.554886
H     -1.778025   -2.017516    1.347620
H      0.026309   -2.446200    0.349989
H      0.600379    0.762164   -2.330254
H     -1.644226    0.321042   -1.931080
H     -0.084096    0.907641    0.492700
