70

C      1.202714   -6.318077   -1.017231
C     -5.698563    1.186324   -1.442127
C     -3.694641    2.354550   -2.263772
C     -5.344467    3.573223   -0.937279
C     -4.991361    1.344841    1.793275
C     -2.619944    3.060673    1.028692
C      0.887601   -5.561193    0.014856
C      5.639279    4.016919    0.130912
C      4.363314    3.538379    0.385964
C      6.655044    3.130104   -0.146834
C      1.397604   -4.159399    0.057559
C      4.076147    2.189627    0.370239
C      6.346070    1.786789   -0.157385
C      0.171365   -0.669866    2.029868
C      1.174990   -1.398193    1.548032
C     -1.611772   -2.185254    1.444031
C      4.784490   -0.167530    0.073958
C     -1.856422    0.288917    1.127497
C      1.922485   -1.394120   -0.792872
C      4.121198   -1.818614   -1.299989
C      5.081911    1.296551    0.094358
C      0.313880   -3.149789    0.096818
C     -0.609485   -3.265710    1.263055
C     -4.661207    2.250939   -1.127189
C     -0.947370   -0.891362    1.044703
C      0.837055   -1.730314    0.160623
O     -0.539741   -4.193439    2.018085
O      4.418068   -0.476000   -1.232700
O      3.074842   -2.099084   -0.453803
O     -2.842523    0.310971    0.170889
O     -0.299237   -0.943393   -0.162929
Si    -3.779562    1.725848    0.424153
H      1.818342   -5.947929   -1.827779
H      0.840218   -7.336148   -1.061820
H     -5.148458    0.349032   -1.921989
H     -6.401282    1.641911   -2.188957
H     -6.208064    0.849390   -0.537721
H     -3.656437    1.377184   -2.776397
H     -2.663216    2.575820   -1.873467
H     -3.985921    3.148816   -3.006673
H     -4.628740    4.381264   -0.752389
H     -6.071856    3.518267   -0.096632
H     -5.909206    3.824494   -1.856936
H     -4.392222    1.255809    2.732075
H     -5.787489    2.104808    1.874206
H     -5.396001    0.328170    1.585334
H     -3.155097    4.035816    1.156242
H     -1.785051    3.248810    0.327710
H     -2.187177    2.808129    2.012341
H      0.275394   -5.966223    0.800992
H      5.799157    5.067495    0.157362
H      3.564361    4.236898    0.604451
H      7.658456    3.481423   -0.348873
H      1.989871   -3.975876   -0.894209
H      2.080930   -4.038570    0.895567
H      3.067740    1.808406    0.571699
H      7.119890    1.060841   -0.372063
H      0.154786   -0.062909    2.914223
H      2.066044   -1.696851    2.054161
H     -1.905351   -2.083411    2.512129
H     -2.504288   -2.398949    0.843491
H      3.969954   -0.438466    0.751986
H      5.687738   -0.750058    0.383718
H     -1.231036    1.203279    0.993041
H     -2.259800    0.353451    2.165630
H      1.637535   -1.585891   -1.859460
H      2.165277   -0.310825   -0.753088
H      4.990103   -2.471897   -1.171836
H      3.742519   -2.012606   -2.343140
H     -0.323385   -3.216221   -0.820267
