54

C      4.865085   -0.223618   -0.142239
C      0.869039   -2.976571    0.950818
C     -2.703524    1.541206   -2.015532
C     -3.873617   -0.384381   -1.109144
C     -1.570742   -1.218835    1.507730
C     -2.115221    2.133718    0.990001
C      2.878034   -0.646595    1.392580
C     -0.123452   -2.154446   -1.119232
C      1.471968   -0.277556    1.767597
C     -1.451238   -1.432392   -1.219141
C     -3.250737    1.425186    0.354839
C     -1.096901    1.168652    1.550840
C      3.020173    1.314164   -0.095490
C      3.531609    0.214066    0.397481
C      0.482816   -1.955457    0.230886
C      0.558986   -0.510317    0.640634
C     -1.433696   -0.042892   -0.624130
C      3.691393    2.101259   -1.132020
C     -2.750860    0.614516   -0.791703
C     -0.870700   -0.061827    0.778518
O      3.140861    3.142231   -1.554963
O      4.905802    1.774281   -1.685599
H      5.666006    0.489078    0.084382
H      4.724831   -0.483228   -1.195975
H      5.177528   -1.178754    0.364140
H      0.728022   -3.983466    0.516056
H      1.301255   -2.982256    1.927787
H     -1.808150    1.291138   -2.631478
H     -3.616084    1.499746   -2.605194
H     -2.567721    2.600165   -1.694365
H     -3.687062   -0.932625   -2.028186
H     -4.778489    0.239711   -1.269072
H     -4.087586   -1.026772   -0.233677
H     -1.071722   -1.313927    2.504039
H     -1.457572   -2.168986    0.989228
H     -2.624358   -1.038279    1.696772
H     -1.603005    2.740421    0.220898
H     -2.432158    2.809525    1.815796
H      2.954220   -1.689137    0.943350
H      3.511254   -0.609492    2.320356
H      0.574803   -1.831256   -1.917125
H     -0.322983   -3.233287   -1.278282
H      1.154612   -0.822727    2.699991
H      1.519468    0.830413    1.983568
H     -2.302142   -2.045932   -0.861485
H     -1.612857   -1.279876   -2.327897
H     -3.902008    0.876842    1.064862
H     -3.937567    2.221289   -0.064400
H     -1.452861    0.935297    2.598035
H     -0.197337    1.819267    1.721622
H      2.074473    1.740904    0.267751
H      0.951389   -0.010824   -0.288443
H     -0.662521    0.521099   -1.232105
H      5.611242    2.471539   -1.955050
