25

C      3.052913   -0.201198   -1.107074
C     -4.240276    0.402824   -0.210524
C     -3.444620    0.896741    0.791093
C     -3.696779   -0.397221   -1.182496
C     -2.102822    0.620082    0.864586
C     -2.343465   -0.699529   -1.142266
C      1.998176   -0.176148    1.140697
C      3.042436    0.422758    0.264668
C     -1.565306   -0.191142   -0.125794
C     -0.146671   -0.530568   -0.116421
O      4.330942    0.234865    0.857183
O      0.291043   -1.261382   -1.025132
O      0.687008   -0.081352    0.833592
H      4.052843    0.005554   -1.607185
H      2.923868   -1.292818   -1.077894
H      2.299939    0.289064   -1.738768
H     -5.286795    0.625823   -0.257362
H     -3.864595    1.528416    1.561766
H     -4.263899   -0.817508   -1.995780
H     -1.436564    0.980778    1.626274
H     -1.921023   -1.335234   -1.917920
H      2.291720   -1.260155    1.410103
H      2.132732    0.308501    2.170960
H      2.958928    1.506665    0.137635
H      4.250267    0.422184    1.846058
