25

C     -3.444983    0.861167    0.591369
C      4.019745    1.159400   -0.652525
C      2.793070    1.647405   -1.042428
C      4.064914    0.010366    0.098597
C      1.661372    0.976416   -0.671800
C      2.911141   -0.665425    0.471058
C     -1.938952   -1.141882    0.496585
C     -3.208747   -0.510683    0.010800
C      1.687222   -0.178160    0.081796
C      0.457341   -0.866589    0.458008
O     -3.212370   -0.453009   -1.369944
O      0.529023   -1.917378    1.146701
O     -0.786851   -0.423764    0.096479
H     -3.796610    0.780406    1.639056
H     -4.234663    1.370454    0.001094
H     -2.531608    1.490260    0.581284
H      4.929429    1.681895   -0.939459
H      2.738954    2.555019   -1.636817
H      5.041511   -0.346173    0.388179
H      0.705855    1.371667   -0.985373
H      3.030864   -1.560899    1.061389
H     -1.903251   -2.174771    0.129071
H     -1.984444   -1.159554    1.619052
H     -4.046217   -1.165850    0.327256
H     -3.481745   -1.340317   -1.706567
