48

C      5.775016   -1.535567    2.477301
C      4.872154   -0.528032    2.616160
C      6.124146   -1.935190    1.202088
C     -4.725722    0.680165    1.657988
C     -5.122744   -0.644954    1.100816
C     -0.706481    0.582313   -2.955896
C      4.324624    0.072685    1.475550
C      5.572431   -1.331982    0.107466
C     -1.522504   -0.215099   -1.924223
C     -3.366252    1.097174    1.139683
C      4.083013    0.144216   -1.049464
C      2.869947    0.492680   -1.310449
C     -4.017035   -1.654205    1.056659
C      0.226876    1.541229   -2.205059
C     -0.654414    1.013632    0.015985
C      4.620135   -0.272895    0.201372
C     -1.859633    0.713534   -0.806584
C     -3.010628    0.178256    0.009785
C      1.762754    0.531006   -0.433497
N     -2.781081   -1.134279    0.525081
N      0.499584    1.027391   -0.896776
O      1.762364    0.145021    0.772803
H      6.191013   -1.992047    3.366229
H      4.589345   -0.204834    3.605953
H      6.845766   -2.737794    1.136213
H     -4.790410    0.737014    2.764977
H     -5.453491    1.441722    1.251953
H     -5.641475   -0.553397    0.116674
H     -5.911330   -1.066379    1.791243
H     -1.331380    1.190650   -3.604596
H     -0.066350   -0.063851   -3.566920
H      3.700368    0.902601    1.690982
H      5.881453   -1.683633   -0.863104
H     -2.412366   -0.574288   -2.483012
H     -0.933128   -1.055530   -1.533167
H     -3.331066    2.168343    0.860741
H     -2.634299    0.913494    1.980040
H      4.819056    0.184525   -1.941846
H      2.662475    0.800142   -2.379971
H     -3.881353   -2.148544    2.046972
H     -4.348416   -2.470604    0.359531
H     -0.288075    2.558756   -2.136516
H      1.079852    1.730856   -2.858864
H     -0.755928    1.975963    0.539556
H     -0.471915    0.236330    0.760943
H     -2.241250    1.665725   -1.280251
H     -3.888706    0.131149   -0.671418
H     -2.114936   -1.053465    1.347843
