56

C      6.424861    0.319990    1.594434
C      5.397037    1.353957   -0.492536
C     -1.797625   -0.216364   -2.637762
C     -3.395367   -1.640442   -1.545877
C     -0.222605   -0.768117    1.759343
C     -2.579801   -1.295200    0.887034
C      0.312210   -2.099144   -1.012345
C     -1.064005   -2.287431   -1.521746
C      4.163258   -0.171573    0.902398
C     -0.237010    1.332436    0.521546
C     -2.011217    3.054938    0.763396
C      5.276685    0.470222    0.679912
C     -1.398055    1.983669   -0.152299
C      0.628705   -0.715600   -0.487456
C      2.970291   -0.096369    0.066564
C     -2.475711    0.955990   -0.169012
C     -3.246296    1.315351    1.096556
C     -1.958771   -1.085338   -1.433510
C     -0.463989   -0.151968    0.384406
C     -1.843185   -0.386417   -0.111247
O      3.030095    0.648795   -0.944329
O     -4.504461    0.731424    1.129368
O     -3.347247    2.714815    0.913150
O      1.815886   -0.779695    0.320404
H      6.849531   -0.719847    1.555660
H      6.147442    0.494695    2.660426
H      7.238809    1.045578    1.378035
H      5.296033    0.793828   -1.448284
H      4.671309    2.217337   -0.431561
H      6.411249    1.810853   -0.505881
H     -1.588402   -0.898292   -3.504429
H     -1.040929    0.550020   -2.610551
H     -2.771548    0.287874   -2.911867
H     -4.143922   -0.888978   -1.300194
H     -3.518707   -1.898162   -2.619344
H     -3.485895   -2.601672   -1.002906
H     -0.392052   -1.860271    1.749255
H     -0.753356   -0.226887    2.560857
H      0.857617   -0.616264    1.970576
H     -2.545895   -0.919079    1.906573
H     -2.159357   -2.299640    0.839591
H     -3.655718   -1.380927    0.615717
H      0.457747   -2.806493   -0.147303
H      1.034287   -2.308512   -1.830230
H     -1.605149   -3.139650   -1.016647
H     -1.058863   -2.593362   -2.607442
H      4.097283   -0.814760    1.767915
H     -0.263898    1.628092    1.601668
H      0.718804    1.661582    0.049264
H     -1.899467    4.059278    0.347758
H     -1.486961    3.040862    1.757701
H     -1.144658    2.424175   -1.137910
H      0.852677   -0.001084   -1.277669
H     -3.197316    1.079466   -1.003002
H     -2.659777    1.177529    2.008361
H     -4.734602    0.514781    2.075475
