35

C     -2.709320   -3.091307    0.131047
C     -1.538986    3.867916   -0.162599
C     -1.201013    3.354848   -1.384229
C     -1.468782    3.014458    0.925844
C      2.935650   -0.408921    1.218776
C      3.099334   -1.450058    0.132534
C     -0.811012    2.039492   -1.494113
C     -1.083609    1.714643    0.818679
C      1.483406    0.066798    1.118292
C      1.689583   -1.694086   -0.396671
C     -0.745593    1.202226   -0.404430
C      1.136624   -0.292580   -0.286278
C     -1.155974   -1.174438    0.096724
C     -0.315181   -0.195273   -0.622351
O     -1.264081   -1.203118    1.354504
O     -0.441450   -0.466608   -1.983313
O     -1.906655   -2.157871   -0.570597
H     -3.700022   -3.102899   -0.409346
H     -2.841754   -2.842297    1.191414
H     -2.314888   -4.140248   -0.004594
H     -1.850201    4.898885   -0.041475
H     -1.245131    3.991528   -2.248655
H     -1.744430    3.452478    1.887181
H      3.595469    0.472078    1.003943
H      3.164954   -0.799816    2.225082
H      3.581644   -2.371269    0.486896
H      3.653052   -0.980544   -0.732163
H     -0.551103    1.682558   -2.501419
H     -1.045632    1.099861    1.683249
H      1.381653    1.134662    1.326515
H      0.926521   -0.562223    1.858356
H      1.690475   -2.080796   -1.417119
H      1.145640   -2.328382    0.335491
H      1.699317    0.352570   -0.967541
H     -1.248503   -1.002266   -2.167635
