71

C     -9.335904   -1.448085    2.264404
C     -5.990991    1.037597   -1.039885
C     -2.632894   -0.676321   -1.082799
C     -7.905225   -0.946612    2.369304
C     -7.311444   -0.712191    1.000100
C      4.343554    0.036143    0.642113
C      3.513019   -0.974655    0.686372
C      5.163951    0.341751    1.802435
C      2.681479   -1.308561   -0.446608
C     -5.912820   -0.204048    1.159448
C      6.022133    1.366114    1.809918
C      7.739201    5.393476    0.584929
C      8.438218    4.338593   -0.224433
C      1.824641   -2.302040   -0.468182
C     -4.967508   -1.226316   -0.876238
C     -0.354946   -2.967330   -1.381253
C     -5.259932    0.041537   -0.203631
C     -3.760210   -1.593630   -1.294260
C     -1.199327   -2.992067   -2.429156
C      7.301662    4.728342    1.804373
C      8.723219    3.303716    0.797299
C      6.836649    1.655488    2.983788
C      7.853428    3.553536    1.925549
C     -0.578799   -2.583360   -3.722204
C      0.256690   -1.365443   -3.778796
C      0.994273   -1.261511   -2.474198
C     -3.598565   -2.922175   -1.935707
C      1.031533   -2.543787   -1.683679
N     -2.522866   -3.367525   -2.346771
N      7.647445    2.643851    3.000677
O      6.403488    5.271747    2.734237
O      9.569645    2.385834    0.686330
O      6.744456    0.858205    4.109965
O     -0.820341   -3.334189   -4.723571
O     -4.751669   -3.724785   -2.083025
O      1.644160   -3.578605   -2.378934
O      1.623632   -1.394919   -3.721414
H     -9.418889   -2.517110    2.482067
H     -9.959274   -0.893739    2.971087
H     -9.676413   -1.160265    1.240855
H     -5.529151    2.070333   -1.011738
H     -5.864415    0.742697   -2.124232
H     -7.049013    1.169188   -0.832155
H     -2.903201    0.408684   -1.114523
H     -2.016711   -0.935479   -0.205083
H     -1.953328   -0.752583   -1.991207
H     -7.294973   -1.690180    2.942413
H     -7.875608   -0.001548    2.943186
H     -7.356826   -1.651013    0.406142
H     -7.993482    0.017240    0.502217
H      4.437943    0.648858   -0.235653
H      3.447311   -1.563814    1.581155
H      5.131957   -0.233482    2.718611
H      2.781852   -0.686099   -1.350530
H     -5.894509    0.736813    1.708374
H     -5.309968   -0.982584    1.639543
H      6.085054    1.964456    0.909991
H      8.414364    6.256763    0.808359
H      6.850063    5.776918   -0.004471
H      7.800256    3.962666   -1.051302
H      9.378857    4.807164   -0.610223
H      1.708711   -2.927188    0.390019
H     -5.792969   -1.935692   -1.057658
H     -0.713712   -3.247429   -0.400637
H     -4.291061    0.556830    0.093368
H     -0.256846   -0.446400   -4.155243
H      0.918195   -0.297047   -1.973181
H      6.697038    5.865012    3.484586
H      7.010156    1.176691    5.036239
H     -4.707349   -4.456907   -2.771854
H      1.742907   -3.309524   -3.315087
