45

C      1.387394    1.058136    1.270211
C     -1.292198    0.985538    1.421518
C     -0.510273   -1.160151    1.882712
C     -5.359344    0.838172   -0.443401
C      5.190163    0.181767   -1.846850
C     -4.359778    1.448157   -1.144672
C     -5.080388   -0.270737    0.308419
C      4.238199    1.150004   -1.681375
C      4.933009   -1.118737   -1.482786
C     -3.077699    0.948998   -1.094836
C     -3.802811   -0.786562    0.371722
C      3.018942    0.787902   -1.141862
C      3.706367   -1.451303   -0.946490
C     -1.439029   -0.748498   -0.246452
C      0.597984    0.253725    0.273842
C     -2.786739   -0.175942   -0.334137
C      2.706966   -0.487936   -0.761903
C      1.433056   -0.921762   -0.186634
N     -0.648212   -0.190785    0.840416
O      1.708858   -1.754107    0.897846
Br     0.000000    0.000000    0.000000
H      1.043245    0.906658    2.322158
H      1.216589    2.140120    1.057388
H      2.465318    0.841896    1.267546
H     -0.864669    1.930866    1.012021
H     -1.083671    1.030824    2.530604
H     -2.369805    1.008343    1.265534
H     -0.506101   -2.216729    1.483930
H      0.301296   -0.973631    2.592378
H     -1.461405   -1.116177    2.491173
H     -6.363447    1.270429   -0.513035
H      6.150378    0.494368   -2.277359
H     -4.584246    2.339512   -1.748939
H     -5.881707   -0.766870    0.875907
H      4.466872    2.179969   -1.979264
H      5.732440   -1.833370   -1.641887
H     -2.261780    1.421340   -1.648318
H     -3.628681   -1.677772    0.988454
H      2.275021    1.556378   -1.015187
H      3.539617   -2.472855   -0.673977
H     -1.543445   -1.861661   -0.123255
H     -0.950193   -0.606074   -1.237439
H      0.341302    0.839649   -0.633583
H      0.842940   -1.546724   -0.908691
H      2.559667   -1.474369    1.323941
