42

C      2.811294   -1.273703    1.162523
C      3.852872    0.651144    0.046464
C     -0.832933    3.072034    0.841709
C     -1.639525   -2.968093    1.177417
C     -2.682073    0.101401   -0.816685
C     -2.217410    1.206017    0.002820
C     -0.217784    1.712748   -1.248403
C      1.232646    1.629344   -0.741379
C      0.167806   -0.306938    0.515557
C     -2.938070   -1.186403   -0.060630
C     -0.455592   -1.157846   -0.216608
C      2.635018   -0.194534    0.101069
C     -1.139088    1.950685   -0.141053
C      1.371793    0.587117    0.311605
C     -1.676330   -2.034587    0.042843
O     -1.838320   -2.932762   -1.061377
H      2.015618   -1.207992    1.937037
H      2.850782   -2.279736    0.718929
H      3.778179   -1.116424    1.697752
H      4.543522    0.288740   -0.764540
H      4.417583    0.528211    0.994348
H      3.645254    1.739011   -0.043374
H     -0.492943    2.665916    1.795034
H     -0.185802    3.825301    0.385321
H     -1.823299    3.559360    1.012025
H     -2.665401   -3.084569    1.581456
H     -1.291852   -4.006113    0.951744
H     -0.927261   -2.632012    1.989901
H     -2.049750   -0.190346   -1.674166
H     -3.678936    0.336991   -1.307929
H     -2.844289    1.474372    0.875296
H     -0.232969    2.637072   -1.899581
H     -0.404440    0.876877   -1.902272
H      1.894918    1.359425   -1.589128
H      1.573022    2.615679   -0.382624
H     -0.096244   -0.009968    1.597374
H     -3.302337   -0.887026    0.945837
H     -3.748371   -1.769485   -0.523581
H     -0.188752   -1.433673   -1.306439
H      2.525748   -0.719992   -0.888797
H      1.563436    1.160775    1.270741
H     -1.309722   -2.586021   -1.810848
