38

C      3.727890    3.096506   -1.075990
C     -2.743548    1.558674   -2.837634
C      3.291227    2.506210   -0.093672
C     -2.069429    0.238916   -2.451614
C      2.757505    1.806147    1.047712
C      3.021109    0.521309    1.232700
C     -2.316366   -1.447403    0.567279
C     -1.895981   -0.752483    1.648482
C      2.531600   -0.282023    2.358078
C     -1.427015   -1.900855   -0.530123
C     -0.511565   -0.286227    2.003650
C     -1.115222    0.432158   -1.312831
C      1.716837   -1.443925    1.962675
C     -0.437077   -0.861761   -0.942209
C      0.449116   -1.169853    1.201846
Br     0.253653    1.727965   -1.743023
Cl     1.303782   -2.452798    3.379745
O      0.577694   -0.635565   -0.033752
H      4.089036    3.614975   -1.915415
H     -3.830966    1.407741   -3.049294
H     -2.307144    1.984807   -3.764259
H     -2.662330    2.311713   -2.046553
H     -2.876813   -0.456188   -2.102857
H     -1.553912   -0.123960   -3.358495
H      2.133157    2.291302    1.784487
H      3.656364    0.063512    0.462686
H     -3.361529   -1.648671    0.563584
H     -2.688018   -0.506858    2.345742
H      3.448106   -0.653196    2.898345
H      1.978343    0.400328    3.052919
H     -2.097514   -2.090533   -1.409408
H     -0.973395   -2.909858   -0.354520
H     -0.331116   -0.378969    3.094683
H     -0.423407    0.761635    1.667327
H     -1.617345    0.802131   -0.394939
H      2.326560   -2.118744    1.293078
H      0.055898   -1.233054   -1.881909
H     -0.078186   -2.173108    1.201335
