71

C     -5.677981   -3.885734    1.348287
C     -7.208551    0.918761   -0.196803
C     -5.833257    2.357632    1.705646
C     -7.018470   -3.206810    1.411379
C     -6.817900   -1.703483    1.368789
C      4.481752    0.779759   -1.213368
C      3.249001    1.259126   -1.443351
C      5.573413    1.863080   -1.432589
C      2.128030    0.265422   -1.241570
C     -6.163116   -1.351323    0.086602
C      6.779023    1.443901   -1.166998
C      8.648447   -1.529342    0.849736
C      8.636653   -1.941401   -0.638409
C      0.943991    0.736909   -1.479432
C     -4.731309    0.710680    0.360122
C     -1.159593    1.043660   -0.553666
C     -5.957547    0.126205   -0.172598
C     -4.606324    1.703732    1.194714
C     -1.574537    0.845392    0.668179
C      8.537334   -0.031537    0.682779
C      9.610304   -0.860015   -1.107567
C      7.973281    2.266070   -1.291995
C      9.092984    0.357074   -0.458535
C     -1.259057   -0.451740    1.298546
C     -0.771700   -1.577889    0.463485
C     -0.307949   -1.276333   -0.853147
C     -3.328836    2.227309    1.637679
C     -0.379083    0.090751   -1.388132
N     -2.205954    1.856278    1.398532
N      9.123141    1.690555   -0.929610
O      7.914803    0.763357    1.652762
O     10.554640   -1.027711   -1.829966
O      7.995511    3.556552   -1.743377
O     -1.418223   -0.558635    2.546377
O     -3.402253    3.398751    2.513100
O     -1.005892    0.087223   -2.663458
O     -1.537703   -1.940988   -0.675501
H     -5.129169   -3.741197    0.392805
H     -4.995551   -3.572481    2.162425
H     -5.780657   -5.000865    1.481644
H     -7.767954    1.021882    0.733143
H     -7.998047    0.354988   -0.848288
H     -7.073895    1.824608   -0.815468
H     -6.401490    1.651314    2.383788
H     -5.464536    3.107509    2.498803
H     -6.408444    2.955249    1.041657
H     -7.615906   -3.555914    0.517724
H     -7.477973   -3.509409    2.378373
H     -6.067540   -1.513023    2.199876
H     -7.774559   -1.170611    1.584396
H      4.738235   -0.146632   -1.029117
H      3.099874    2.203416   -1.701602
H      5.348657    2.814287   -1.761222
H      2.306631   -0.720581   -0.923839
H     -5.142777   -1.842430    0.088226
H     -6.683225   -1.878046   -0.745878
H      6.879914    0.413589   -0.840062
H      9.617951   -1.850893    1.238815
H      7.826197   -1.955393    1.408544
H      9.001297   -2.944325   -0.774410
H      7.682372   -1.741687   -1.108715
H      0.888558    1.802538   -1.832552
H     -3.756561    0.248370    0.030935
H     -1.391983    2.005386   -1.031381
H     -5.708595    0.076071   -1.331498
H     -0.274268   -2.371529    1.032303
H      0.509576   -1.904624   -1.326882
H      6.890110    0.774257    1.676697
H      8.832143    4.149347   -1.671769
H     -2.552983    3.992852    2.441596
H     -1.032472    1.018740   -3.004435
