55

C     -1.700945    2.904125   -0.801390
C     -3.415490    2.170097    0.846911
C      2.590082    2.579252    1.509668
C     -1.761796   -2.250511   -0.345762
C      2.384828   -0.572328   -1.036604
C     -2.994732    0.244630   -1.350994
C     -2.349577   -0.812263   -2.254461
C     -0.090351   -1.931409   -2.108913
C      0.834305   -2.433316   -0.988281
C      2.471308    0.220409    2.421906
C      1.071322    1.001087    0.491057
C      1.940372   -1.851751    1.079853
C     -2.043666    1.906770    0.254887
C      1.985638    1.217966    1.431463
C      2.982587   -1.036150    1.745789
C     -2.019733    0.487896   -0.216724
C      0.335191   -0.262865    0.220620
C     -0.735948    0.001639   -0.782650
C     -1.238087   -1.313619   -1.412265
C      1.363431   -1.272268   -0.176208
O      3.507798   -1.829087    2.798047
H     -1.172406    2.511541   -1.668117
H     -1.039148    3.697824   -0.348517
H     -2.603364    3.465821   -1.165767
H     -3.960944    2.928861    0.220406
H     -3.370782    2.480962    1.906141
H     -4.065443    1.264328    0.818820
H      2.751835    2.897720    2.559043
H      3.569143    2.523127    0.962875
H      1.973683    3.296904    0.933245
H     -2.828522   -2.007214   -0.181982
H     -1.732157   -3.276788   -0.798193
H     -1.197464   -2.186622    0.588914
H      3.034909    0.115428   -0.506239
H      3.039021   -1.313879   -1.569083
H      1.875861    0.003217   -1.837516
H     -3.113046    1.169999   -1.960192
H     -3.991757   -0.065803   -1.003659
H     -3.129782   -1.595180   -2.423725
H     -2.053431   -0.386683   -3.217548
H      0.503047   -1.220588   -2.719707
H     -0.401373   -2.822105   -2.669217
H      1.712502   -2.900260   -1.488517
H      0.308264   -3.177414   -0.367375
H      3.310675    0.633962    3.014548
H      1.666274   -0.049458    3.110975
H      0.878012    1.865213   -0.122487
H      2.342472   -2.858320    0.889098
H      1.098014   -1.986028    1.798885
H     -1.322850    1.989800    1.097469
H      3.861376   -0.815808    1.106129
H     -2.372087   -0.167335    0.613442
H     -0.124675   -0.559828    1.190975
H     -0.400192    0.625035   -1.611192
H      3.837800   -1.248733    3.522121
