55

C     -4.031173    1.686449   -0.092748
C     -2.284022    1.745407   -1.798463
C     -0.510532   -1.783236    2.059180
C      1.620797   -0.687196   -1.898969
C      3.034822    2.601527   -1.016274
C     -2.819400   -0.339722    1.305241
C     -2.571521   -1.762391    0.777571
C     -0.454240   -2.755183   -0.181598
C      0.992353   -2.477046   -0.322915
C      1.636626    2.155497    1.035993
C      2.779819   -0.950073    0.236308
C     -2.875224    0.911830   -0.738850
C     -1.937170    0.523402    0.384533
C      1.019050    1.295495   -0.095902
C      3.357704    0.402682    0.198273
C     -0.854672   -0.384757   -0.014944
C      0.539645   -0.055829    0.270467
C     -1.095689   -1.738290    0.673316
C      1.423523   -1.073903   -0.449635
C      2.451153    1.526912   -0.084787
O      3.982873    0.641321    1.446508
H     -4.953167    1.074623   -0.057356
H     -4.201384    2.653469   -0.631421
H     -3.795045    1.964149    0.954982
H     -3.063604    2.122102   -2.455105
H     -1.789636    2.634693   -1.308649
H     -1.507434    1.203070   -2.362165
H     -0.665886   -0.884811    2.658991
H     -1.070560   -2.605311    2.599021
H      0.549777   -2.128341    2.074346
H      1.142913    0.253301   -2.175403
H      1.222846   -1.489724   -2.586369
H      2.711452   -0.612216   -2.163422
H      2.365770    2.805721   -1.856027
H      4.039626    2.311509   -1.379744
H      3.172767    3.562010   -0.465173
H     -3.881647   -0.151052    1.177077
H     -2.565654   -0.226836    2.354103
H     -3.090369   -1.870806   -0.186150
H     -2.962201   -2.439374    1.562910
H     -0.583300   -3.758648    0.314261
H     -0.987249   -2.857648   -1.157089
H      1.532101   -3.005762    0.517829
H      1.351658   -3.030444   -1.242058
H      1.384485    3.212928    1.014365
H      1.651716    1.671270    2.032133
H      2.652132   -1.304368    1.267511
H      3.431687   -1.710985   -0.269959
H     -3.302930   -0.013903   -1.158278
H     -1.557415    1.382004    0.938696
H      0.448312    1.889187   -0.869406
H      4.223879    0.383238   -0.529302
H     -0.980407   -0.593693   -1.119252
H      0.757859   -0.228140    1.363647
H      4.914184    0.305895    1.450149
