46

C     -3.914948   -1.956285   -1.374706
C      1.090704    1.684401    0.791709
C      0.793267   -0.375733    2.080548
C      4.933709   -0.969049   -0.447642
C      3.942322   -0.983360   -1.393274
C      4.622805   -0.603363    0.843332
C      2.650478   -0.633009   -1.036214
C      3.319476   -0.254956    1.179633
C     -1.409810   -2.226939   -1.142554
C     -0.271009   -1.729547   -0.282562
C     -2.386447   -0.028145   -1.204089
C     -2.014607    4.235269    0.417351
C     -2.640140   -1.460336   -0.784351
C      2.312490   -0.266594    0.234772
C     -0.130524   -0.230109   -0.242331
C     -1.400195    0.480071   -0.065595
C     -2.127738    2.756497    0.620993
C      0.943139    0.155757    0.688741
Cl    -0.828576    4.864557    1.587382
O     -2.867252    2.221884    1.464150
O     -1.378705    1.872649   -0.158039
H     -4.034677   -1.774274   -2.455428
H     -4.729231   -1.334927   -0.885674
H     -4.127253   -2.996077   -1.058299
H      0.953329    2.178602   -0.161826
H      0.455781    2.084749    1.636187
H      2.120650    1.918832    1.151738
H      1.467111   -1.265504    2.261069
H     -0.200780   -0.722596    2.346755
H      1.102983    0.357018    2.861225
H      5.965271   -1.249266   -0.729946
H      4.192325   -1.269285   -2.411688
H      5.414282   -0.594880    1.570672
H      1.924925   -0.660260   -1.811352
H      3.154080    0.019349    2.215006
H     -1.196515   -2.111115   -2.227797
H     -1.556076   -3.302911   -0.935120
H     -0.436856   -2.160212    0.742210
H      0.651432   -2.231283   -0.635367
H     -1.887210    0.085427   -2.163245
H     -3.318004    0.520437   -1.058874
H     -1.637675    4.485287   -0.576901
H     -2.980812    4.662892    0.698984
H     -2.762366   -1.450423    0.321922
H      0.212188    0.054118   -1.289544
H     -1.985345    0.202644    0.818037
