53

C     -3.490202    0.608085    1.716868
C     -3.718484    1.152740   -0.638281
C     -1.166331   -0.711513   -2.123416
C     -0.651369    2.356184    0.001440
C      2.367908    0.758851   -0.577974
C      1.801494   -0.569158   -0.882674
C     -2.316550   -1.531858    0.230274
C      4.242793   -0.299185    0.733108
C     -1.946477    2.210057    0.770527
C     -0.595185    1.420867   -1.173411
C     -1.297318   -2.581321    0.049850
C      5.599413    0.346642    1.044662
C      1.117151   -3.217258    0.043914
C      3.499530    0.829983    0.173999
C     -1.740007   -0.158978    0.258608
C      0.459106   -0.792290   -0.366349
C      4.161194    2.061248    0.547922
C     -2.708086    0.942972    0.418835
C     -0.704601    0.000450   -0.843439
C      0.034985   -2.253565   -0.465687
O      3.858377    3.251619    0.265710
O      5.269464    1.704144    1.327478
O      0.790316   -3.060212   -1.280829
H     -4.021139    1.515424    2.060497
H     -2.705609    0.323288    2.448699
H     -4.176718   -0.209160    1.496321
H     -3.744754    2.220532   -0.939921
H     -4.770792    0.970806   -0.258321
H     -3.647067    0.510984   -1.533939
H     -1.416091    0.037703   -2.909356
H     -0.335315   -1.303087   -2.561602
H     -2.003872   -1.381271   -1.983353
H      0.228491    2.209023    0.648644
H     -0.623876    3.391036   -0.394829
H      2.010270    1.711196   -0.879691
H      2.541573   -1.372755   -0.628458
H      1.781953   -0.595894   -2.029551
H     -2.763005   -1.684516    1.269227
H     -3.220304   -1.624832   -0.415278
H      4.453358   -1.115048    0.034067
H      3.751126   -0.624098    1.675905
H     -2.605283    3.102150    0.642664
H     -1.674067    2.176569    1.845280
H      0.137058    1.757016   -1.898821
H     -1.585792    1.659985   -1.751831
H     -1.749285   -3.343575   -0.663423
H     -1.187940   -3.204266    0.996523
H      6.119362   -0.150697    1.862498
H      6.173017    0.347427    0.092658
H      0.773768   -4.179696    0.519975
H      2.016326   -2.845689    0.513732
H     -1.138114   -0.112640    1.224087
H      0.515600   -0.654420    0.792769
