43

C      3.559654    1.911734    0.486558
C     -5.129069   -0.266706   -2.094038
C      2.141227   -2.462274    0.112884
C     -2.649483    2.152512    0.195485
C      2.425856   -1.059235   -0.310749
C     -1.428828    1.635406    0.576072
C     -3.473559    1.349221   -0.564970
C      0.711064   -2.869042   -0.031695
C      0.798717   -0.105214    1.793077
C      1.703167    1.064893    1.768690
C      1.549683    1.225630   -0.650369
C      1.222445   -0.249761   -0.657986
C     -1.014914    0.355208    0.222411
C     -3.058181    0.070107   -0.917326
C     -0.289347   -1.848550    0.348942
C     -1.837150   -0.445656   -0.535788
C      0.207536   -0.446092    0.472886
N      2.182087    1.549253    0.553436
O     -3.875845   -0.766166   -1.689156
O     -1.200198   -1.684501   -0.759509
H      4.175486    1.600235    1.327820
H      3.647144    3.026944    0.379572
H      3.965254    1.504712   -0.483387
H     -5.772882   -0.143173   -1.184478
H     -5.658591   -0.928800   -2.787944
H     -5.055467    0.724270   -2.584621
H      2.527854   -2.693229    1.149453
H      2.742741   -3.139195   -0.550473
H     -2.977134    3.150920    0.468923
H      3.104719   -1.018903   -1.214252
H      3.017197   -0.577855    0.492618
H     -0.790641    2.274314    1.172069
H     -4.456109    1.703096   -0.898638
H      0.555108   -3.249954   -1.084050
H      0.555335   -3.770693    0.609684
H     -0.067436    0.135375    2.480478
H      1.273493   -0.994673    2.288443
H      1.266299    1.938644    2.342537
H      2.604421    0.804445    2.406997
H      0.659919    1.842640   -0.829165
H      2.270444    1.389105   -1.499795
H      0.767897   -0.575011   -1.601958
H     -0.899912   -2.113980    1.231376
