40

C     -2.136153    2.114283    1.694074
C      3.788985   -0.231342    0.294639
C      2.563130    1.436477   -0.992024
C     -1.381921   -2.470451    0.276909
C     -3.474982   -0.110126   -1.079934
C     -3.310294    0.934365   -0.099180
C      1.143223   -1.225082   -0.703298
C     -2.574984   -1.040516   -1.227568
C     -0.187958   -1.102479   -1.412274
C      0.098745    0.722754    0.293185
C     -2.252247    0.984526    0.676200
C      1.286507   -0.211837    0.398166
C     -1.193913   -0.022443    0.574072
C      2.531148    0.627326    0.263824
C     -1.352880   -1.092575   -0.423054
O      2.619976    1.488079    1.357197
H     -1.497093    1.824989    2.526296
H     -1.695491    2.969346    1.122346
H     -3.150701    2.374137    2.018395
H      3.829253   -0.934292   -0.554331
H      3.871960   -0.745884    1.278964
H      4.642671    0.486227    0.252671
H      3.577217    1.888207   -1.074123
H      1.829145    2.257446   -1.013663
H      2.475496    0.766094   -1.890289
H     -1.590829   -3.273507   -0.442425
H     -0.459137   -2.579824    0.849179
H     -2.259050   -2.433110    0.984020
H     -4.396850   -0.096889   -1.708354
H     -4.059667    1.726332    0.038159
H      1.924922   -1.153050   -1.465748
H      1.195629   -2.275337   -0.304262
H     -2.744576   -1.825522   -1.996497
H     -0.301774   -2.007773   -2.052498
H     -0.257298   -0.221134   -2.047588
H      0.092279    1.237184   -0.668503
H      0.211664    1.457046    1.124095
H      1.295647   -0.723472    1.373154
H     -1.042189   -0.468210    1.598965
H      2.342390    0.950032    2.161101
