43

C     -4.387537   -1.415189   -0.381445
C      5.541179    1.199927   -0.208646
C     -0.708269    1.835318    1.906031
C      2.744401   -2.102360   -0.172540
C     -0.616533    0.353308    2.012473
C      1.418847   -1.805491   -0.261183
C      3.691512   -1.084744   -0.180943
C     -0.799935    2.376298    0.524661
C     -1.087733   -0.376154   -1.730720
C     -2.583281   -0.443657   -1.661128
C     -2.626710   -0.210573    0.744599
C     -1.141239   -0.304536    0.780213
C      0.947697   -0.503217   -0.362210
C      3.261327    0.218880   -0.279917
C     -0.139647    1.553590   -0.532607
C      1.888972    0.495996   -0.369539
C     -0.423133    0.079962   -0.466999
N     -3.118251   -0.832982   -0.416563
O      4.162327    1.253119   -0.291863
O      1.246688    1.716065   -0.473597
H     -4.522334   -2.234941    0.376411
H     -4.712501   -1.754442   -1.384514
H     -5.138368   -0.637316   -0.076480
H      5.979042    0.192925   -0.233105
H      5.853810    1.651649    0.757492
H      5.989536    1.829099   -1.030889
H      0.190524    2.259335    2.453102
H     -1.568477    2.200816    2.517123
H      3.094713   -3.135456   -0.092667
H      0.396473   -0.007278    2.299918
H     -1.275918    0.009767    2.860528
H      0.705461   -2.603891   -0.252336
H      4.728932   -1.366670   -0.108012
H     -1.818282    2.689060    0.199096
H     -0.226625    3.355237    0.531695
H     -0.715984   -1.397239   -1.955585
H     -0.742506    0.266965   -2.566421
H     -2.982424   -1.116901   -2.448946
H     -2.970750    0.568605   -1.903021
H     -3.001880   -0.823091    1.623697
H     -3.061770    0.781692    0.849853
H     -0.921186   -1.415828    0.923114
H     -0.550166    1.954016   -1.518128
