36

C      4.588399   -0.304493   -0.906067
C     -2.790943   -1.005519   -2.117377
C     -2.582426   -0.592820    1.666777
C     -3.212217   -0.890986    0.332963
C      2.222457    0.236566   -0.184212
C     -0.741230   -1.532500    0.400325
C      0.355199    1.355240    0.916943
C      3.526334    0.445649   -0.190713
C     -1.107077   -0.506201    1.483846
C      1.649336    1.250727    0.671870
C     -0.904523   -0.385314   -0.565647
C      3.823495    1.605555    0.665966
C     -1.934201    1.473789    0.289025
C     -2.432125   -0.367984   -0.827239
C     -0.718985    0.566402    0.443442
N      2.722397    2.077446    1.171693
O      5.073607    2.146079    0.922181
O     -2.241953    2.440960    1.066206
O     -2.627121    1.055884   -0.834896
H      5.396583    0.397735   -1.203341
H      4.195664   -0.876639   -1.764819
H      5.062496   -1.004245   -0.161773
H     -3.113671   -2.057495   -1.917418
H     -3.660419   -0.509584   -2.594227
H     -1.906281   -0.995515   -2.801720
H     -2.788021   -1.456060    2.325514
H     -3.023508    0.301228    2.164812
H     -3.487885   -1.949381    0.208467
H     -4.196994   -0.334738    0.330850
H      1.710792   -0.518893   -0.699552
H     -1.493870   -2.351841    0.297597
H      0.245332   -1.968748    0.514360
H      0.115315    2.194064    1.603475
H     -0.470215   -0.533353    2.363334
H     -0.461752   -0.445672   -1.551861
H      5.208009    3.040658    1.392012
