36

C      4.430717    0.849512   -1.183893
C     -2.887281   -0.610491   -2.061470
C     -2.727082    0.505784    1.564559
C     -3.361507    0.345849    0.201163
C      2.235788    0.151630   -0.120141
C     -1.016771    1.364307   -0.033209
C      0.610441   -0.748806    1.460272
C      3.556764    0.261559   -0.116976
C     -1.270800    0.738122    1.348564
C      1.844504   -0.480627    1.123170
C     -0.964508   -0.061903   -0.515819
C      4.036906   -0.302241    1.137117
C     -1.516423   -1.683422    0.981166
C     -2.449370   -0.468501   -0.640506
C     -0.575163   -0.509763    0.751604
N      3.050177   -0.727406    1.846530
O      5.363527   -0.384850    1.540964
O     -1.544262   -2.481616    1.948787
O     -2.401461   -1.774297   -0.077731
H      5.373017    1.196798   -0.736249
H      4.623838    0.137088   -2.001721
H      3.941931    1.764466   -1.629949
H     -3.143054    0.378891   -2.518226
H     -3.791097   -1.233358   -2.085665
H     -2.042194   -1.043857   -2.637035
H     -3.137372    1.319422    2.157131
H     -2.836785   -0.465006    2.120757
H     -3.727191    1.273611   -0.235512
H     -4.282478   -0.285970    0.380167
H      1.583218    0.465612   -0.883186
H     -0.087464    1.924904    0.011880
H     -1.829716    1.987759   -0.410390
H      0.520802   -1.231239    2.459257
H     -0.735781    1.229324    2.154957
H     -0.537048   -0.289613   -1.481195
H      5.693179   -1.111671    2.185038
