20

C      2.510243   -0.015596    0.354747
C     -1.565317   -0.325098    0.636197
C     -0.676303   -1.443154    0.068058
C      0.326011    1.192245    0.689412
C     -0.548737    0.412288   -1.333978
C      1.220127    0.140587    0.125857
C     -1.007216    0.942078    0.030778
C      0.344469   -0.697640   -0.752326
H      3.033620   -0.831508   -0.128482
H      3.000059    0.681382    1.020577
H     -1.350554   -0.301521    1.725771
H     -2.611612   -0.504297    0.394041
H     -1.287091   -2.044491   -0.647726
H     -0.213071   -2.040670    0.849819
H      0.275314    1.055995    1.770813
H      0.703715    2.212499    0.482862
H      0.018413    1.146580   -1.896949
H     -1.356817   -0.085657   -1.870809
H     -1.676055    1.774080   -0.021819
H      0.860802   -1.268100   -1.496841
