169

C      6.343901   -5.483360   -0.490936
C      6.245728   -5.991601   -2.995183
C     -5.571358    4.936404    0.435967
C     -4.480650    0.889129    3.028313
C     -5.765181   -1.147048    2.654405
C     -3.582977   -3.354494    1.290422
C      0.189981    0.060620    0.311114
C     -1.964469   -2.601666   -1.399134
C      2.947170   -2.454563   -3.003506
C      5.365613   -2.855960   -1.027537
C      5.576767   -3.807642   -2.132293
C      1.340388   -0.214578   -2.194379
C     -3.409902   -2.522126    4.144535
C      3.990860   -2.384990   -0.772234
C     -2.291310   -2.569541    3.158739
C     -0.163406   -0.278856   -2.047098
C     -0.504819   -3.149656    1.023273
C     -2.652801   -0.453897   -0.545947
C     10.891322    2.303971    2.959760
C     -7.138371    1.297558   -3.684772
C      7.733640    1.711454   -1.547881
C      6.035004   -5.036553   -1.877790
C     -6.265406    4.657233    1.754378
C      1.928885   -1.143739   -1.106942
C      0.740976   -2.985490    0.226919
C     -3.891783   -0.653616    0.348286
C      9.497116    2.579694    2.461824
C     -6.612431    0.219268   -2.758400
C      7.059758    0.544931   -2.263125
C     -1.456760   -2.026827    0.990390
C     -3.900693   -1.105271    4.184327
C      0.804716   -2.031525   -0.871001
C     -7.644862    5.273379    1.794977
C      8.502067    2.179715    3.519128
C     -7.735512   -0.472823   -2.078238
C      7.275318    0.564645   -3.733717
C     -8.492676    4.356633    2.664068
C      7.113459    2.345354    2.937415
C      6.099647    1.017589   -4.527039
C     -8.165442    0.127706   -0.755680
C      7.111369    2.945767    1.565330
C     -8.689365    3.011558    1.979355
C      4.782935    0.723687   -3.900730
C     -7.016574    1.000370   -0.201615
C     -3.427628   -0.865846    1.719038
C      8.149401    2.381907    0.641303
C     -7.401260    2.680222    1.288143
C      4.927856   -0.250667   -2.691371
C     -5.784785    0.307083   -0.617470
C     -4.382543   -0.613493    2.832257
C     -2.739489   -2.222525    1.750189
C     -0.273664   -0.941543   -0.723127
C     -1.626685   -1.510968   -0.401320
C      3.210649   -1.668907   -1.785727
O     11.194303    3.052629    4.077311
O     -6.137250    1.739173   -4.521811
O      0.963206   -4.293587   -0.293930
O     -4.943216   -0.905914    5.084681
O     -7.530300    6.538444    2.363356
O      8.683480    2.858438    4.709235
O     -7.566606   -1.872212   -1.987957
O      7.679555   -0.686214   -4.233228
O     -9.716076    4.981141    2.831297
O      6.369715    1.175321    3.018494
O      6.230296    2.392573   -4.833046
O     -9.345877    0.811828   -0.863045
O      7.169485    4.332922    1.641757
O     -9.697352    3.183322    1.056763
O      3.811832    0.324513   -4.771585
O      7.608469    1.428321   -0.184750
O     -6.319095    3.294327    1.936244
O     -4.633914    0.492067    0.067200
O      9.217323    1.808540    1.332411
O     -5.581223    0.673811   -1.979635
O      5.761606    0.504018   -1.852792
O     -7.166162    1.328924    1.109690
O      3.791962   -0.427558   -2.049493
H      6.763989   -6.504242   -0.523206
H      7.130127   -4.845700   -0.034098
H      5.459282   -5.452030    0.160650
H      5.365735   -6.688389   -3.033344
H      6.357226   -5.514139   -3.978650
H      7.169909   -6.574641   -2.720781
H     -5.759875    4.136987   -0.309353
H     -4.469725    4.995421    0.598486
H     -5.956396    5.873767   -0.049146
H     -5.465528    1.179376    3.454806
H     -3.687577    1.214038    3.762537
H     -4.304200    1.471088    2.134778
H     -5.908823   -2.089947    3.266820
H     -6.072890   -1.412372    1.652175
H     -6.557982   -0.467730    3.078823
H     -4.473187   -3.420064    1.901583
H     -2.992795   -4.292808    1.512193
H     -3.847882   -3.411540    0.248187
H      0.840002    0.860185   -0.153802
H     -0.651115    0.652307    0.745413
H      0.829939   -0.377546    1.108310
H     -1.819875   -3.618015   -1.009077
H     -1.369173   -2.550290   -2.334520
H     -3.021930   -2.485202   -1.788309
H      3.125590   -3.543191   -2.729624
H      1.893518   -2.478915   -3.365648
H      3.561512   -2.255913   -3.872202
H      5.645677   -3.435552   -0.077027
H      6.138727   -2.052147   -1.005650
H      5.395961   -3.560430   -3.171352
H      1.707374    0.820630   -1.986118
H      1.594293   -0.563774   -3.184884
H     -4.198723   -3.274011    3.971276
H     -2.980312   -2.745852    5.142761
H      4.038655   -1.813465    0.215759
H      3.464726   -3.344693   -0.427902
H     -1.922442   -3.631432    3.133200
H     -1.493082   -1.884098    3.507128
H     -0.669238   -0.731349   -2.889028
H     -0.574744    0.767298   -1.931217
H     -1.077818   -4.091841    0.817524
H     -0.192505   -3.296347    2.101886
H     -2.309188    0.586574   -0.415315
H     -3.074464   -0.470617   -1.596348
H     11.656319    2.547069    2.179156
H     11.018969    1.236697    3.224882
H     -7.534430    2.152520   -3.139930
H     -7.921095    0.811766   -4.306565
H      7.313624    2.676949   -1.837080
H      8.808127    1.689228   -1.800484
H     -5.638965    5.067784    2.577245
H      2.301342   -0.554789   -0.257546
H      1.616735   -2.811987    0.913424
H     -4.482187   -1.507206   -0.085628
H      9.414597    3.668463    2.248288
H     -6.148689   -0.549780   -3.452327
H      7.585049   -0.369595   -1.868106
H     -0.966968   -1.182406    1.573372
H     -3.052243   -0.476193    4.526903
H      0.579584   -2.559489   -1.830763
H     -8.040811    5.344865    0.778377
H      8.631625    1.094310    3.728544
H     -8.629880   -0.369434   -2.764923
H      8.128046    1.259823   -3.992888
H     -8.037103    4.199626    3.641164
H      6.589214    3.071718    3.621466
H      6.112732    0.516697   -5.535233
H     -8.285914   -0.695661   -0.025187
H      6.105354    2.710048    1.115671
H     -9.018204    2.255666    2.719334
H      4.420276    1.677036   -3.410843
H     -7.116343    1.952134   -0.798514
H     -2.590206   -0.121502    1.908057
H      8.578167    3.200944    0.015860
H     -7.437130    3.148466    0.267468
H      5.513552   -1.081560   -3.066736
H     -5.951379   -0.811140   -0.694971
H     10.843769    3.983284    4.023181
H     -6.593347    2.266551   -5.239398
H      1.068781   -4.945265    0.419477
H     -5.166685   -1.744144    5.523386
H     -6.609945    6.860580    2.198064
H      7.924273    2.760871    5.310758
H     -8.449615   -2.229851   -1.667493
H      7.588209   -0.713821   -5.223005
H     -9.519479    5.967489    2.914264
H      6.091445    0.880638    2.135249
H      6.013968    2.929970   -4.042596
H     -9.981492    0.690198   -0.130183
H      7.419608    4.667642    0.740352
H    -10.563547    3.429499    1.467679
H      4.105632    0.274972   -5.715745
