33

C      3.884563    0.028580    0.395638
C      2.443157   -0.462273    0.313793
C     -0.733254   -2.118416   -0.405570
C     -1.871171    1.875608    1.386313
C      1.734939    0.430193   -0.639284
C      0.001035   -1.226585   -1.413277
C     -2.050724   -1.458897   -0.047002
C     -2.762889    0.754959    0.904174
C     -0.568009    1.732630    0.652642
C      0.295397    0.122405   -0.867870
C     -1.893928    0.039511   -0.076251
N     -0.508462    0.317577    0.329285
H      4.153542    0.360330   -0.630077
H      4.538252   -0.831272    0.696413
H      3.979498    0.888735    1.089732
H      1.997252   -0.459005    1.335322
H      2.510575   -1.512851   -0.015705
H     -0.892259   -3.087761   -0.951144
H     -0.126221   -2.312003    0.490102
H     -2.314986    2.853174    1.064429
H     -1.739217    1.837829    2.485791
H      2.275772    0.429027   -1.596092
H      1.796288    1.470387   -0.246383
H      0.876200   -1.797133   -1.748814
H     -0.691664   -1.184657   -2.302272
H     -2.402624   -1.821487    0.943268
H     -2.826906   -1.718504   -0.806412
H     -3.686934    1.174895    0.441178
H     -3.043899    0.062181    1.708662
H      0.298911    2.014980    1.313210
H     -0.546522    2.298815   -0.299244
H     -0.084540    0.876994   -1.605656
H     -2.041174    0.422036   -1.125947
