33

C     -0.245218   -1.938678    1.334393
C     -3.030453    1.048456   -0.248576
C     -0.065441    2.566524    1.275733
C      3.464629   -0.792847   -0.766454
C      3.621231    0.545214   -0.444360
C      2.228481   -1.383472   -0.601298
C      2.568169    1.298304    0.037448
C     -0.845938   -1.584426   -1.079093
C     -1.925447   -0.609117   -1.463014
C      1.185056   -0.610949   -0.116752
C      1.339123    0.717471    0.203387
C     -0.942977    0.276002    0.451536
C     -0.212406   -1.005357    0.144170
N     -1.735326    0.585327   -0.692312
N      0.096210    1.259783    0.677953
H      0.188234   -1.364495    2.190020
H     -1.297953   -2.130462    1.595343
H      0.312453   -2.848283    1.099698
H     -3.644318    0.119660   -0.072045
H     -3.005728    1.573884    0.718094
H     -3.576691    1.602002   -1.042745
H     -1.085794    2.975137    1.058963
H      0.640714    3.257808    0.747769
H      0.133556    2.533635    2.352785
H      4.320908   -1.348493   -1.142826
H      4.589975    0.979311   -0.581601
H      2.076718   -2.418923   -0.842505
H      2.726056    2.330258    0.276089
H     -0.152950   -1.769982   -1.907734
H     -1.279426   -2.578481   -0.802182
H     -2.910075   -1.073108   -1.201066
H     -1.956614   -0.374526   -2.531671
H     -1.578757    0.162821    1.372853
