169

C      2.977582   -7.268756   -1.855605
C      1.268895   -5.700034   -2.914131
C     -9.265961    1.216379    1.437831
C     -5.716196    1.760785    2.070841
C     -3.955139    2.363352    3.591547
C     -2.087679    0.101105    3.923209
C     -1.299961   -1.268037   -1.223273
C      0.178966    0.378666    1.886270
C      3.052036   -3.640667    0.342188
C      3.304252   -3.546802   -2.694439
C      3.492434   -4.941753   -2.265286
C      1.549806   -0.742047   -1.569784
C     -4.707638   -1.085118    4.177077
C      3.627199   -2.476734   -1.730329
C     -3.602875   -1.617396    3.320145
C      0.483063    0.191693   -1.044694
C     -1.097091   -2.273378    2.093571
C     -1.755057    1.225071    0.729450
C     10.619971    5.505936    0.469094
C     -3.110903    3.476079   -3.854634
C      7.075848    1.224668   -0.263628
C      2.607788   -5.899834   -2.347650
C     -8.916643    0.956053    0.000634
C      1.411560   -2.067508   -0.797333
C     -0.400554   -2.839667    0.839298
C     -3.256845    1.079865    0.808113
C     10.000164    4.505732   -0.514798
C     -4.038298    2.616328   -3.059436
C      6.455172    0.085610    0.491576
C     -1.835362   -1.053904    1.695987
C     -5.261461    0.240165    3.936724
C      0.524822   -1.797977    0.336170
C    -10.136825    0.447527   -0.717772
C     11.137939    4.100935   -1.441891
C     -4.986305    1.901942   -3.979345
C      6.517102    0.450728    1.976941
C     -9.812641   -0.705975   -1.639344
C     10.612550    3.013342   -2.346762
C      5.113816    0.298510    2.521298
C     -5.067718    0.457654   -3.533957
C     10.088520    1.909011   -1.449251
C     -8.506559   -0.390208   -2.339367
C      4.627582   -1.088512    2.168229
C     -5.304587    0.421889   -2.024154
C     -3.744299    0.382428    2.014335
C      8.982876    2.485857   -0.567971
C     -7.404460   -0.207305   -1.295287
C      4.577734   -1.241129    0.651636
C     -4.315784    1.241584   -1.278762
C     -4.617484    1.170279    2.958288
C     -2.745009   -0.476233    2.742122
C     -0.378658   -0.682174   -0.221355
C     -0.991614   -0.035059    0.983698
C      2.866793   -2.403613   -0.439588
O      9.691043    5.962390    1.378780
O     -3.918217    4.388393   -4.565077
O      0.176506   -4.009966    1.303587
O     -5.340169    0.966816    5.156428
O    -10.707981    1.508860   -1.387541
O     11.567250    5.214453   -2.135592
O     -6.277087    2.424022   -3.917169
O      7.332805   -0.431643    2.675835
O     -9.633085   -1.882330   -0.923071
O     11.646462    2.552120   -3.134447
O      4.254414    1.189678    1.843195
O     -3.868682   -0.156786   -3.802665
O      9.555113    0.891703   -2.216061
O     -8.112799   -1.462685   -3.150384
O      5.439338   -2.039013    2.764505
O      8.399606    1.447131    0.112570
O     -7.920699   -0.003528   -0.043458
O     -3.589377    0.470295   -0.415235
O      9.525389    3.458446    0.237474
O     -3.360978    1.651812   -2.295266
O      5.154034   -0.084979    0.075558
O     -6.592997    0.827372   -1.738003
O      3.274728   -1.259287    0.271129
H      3.802992   -7.160231   -1.109575
H      3.320269   -7.900019   -2.695978
H      2.128319   -7.748580   -1.338903
H      1.200705   -6.125013   -3.959522
H      0.540161   -6.318142   -2.299553
H      0.873816   -4.685002   -2.906092
H    -10.377021    1.319081    1.536592
H     -8.866292    2.236026    1.703594
H     -8.880554    0.463933    2.136830
H     -6.671310    1.687709    2.643585
H     -5.837239    1.195426    1.148844
H     -5.561904    2.851693    1.897045
H     -3.133975    2.772928    2.957300
H     -3.676464    2.236696    4.649764
H     -4.674316    3.245715    3.637686
H     -1.314570   -0.655998    4.255771
H     -1.709973    1.107900    3.890014
H     -2.776529    0.056036    4.821124
H     -1.607351   -0.503336   -2.006237
H     -0.685284   -1.982484   -1.853665
H     -2.174500   -1.801482   -0.969201
H      0.412950   -0.340349    2.664452
H      1.134336    0.514748    1.318576
H      0.028816    1.420875    2.301022
H      2.443550   -4.453695   -0.013023
H      4.128884   -3.954885    0.186570
H      3.005829   -3.487478    1.447872
H      2.331414   -3.387574   -3.224945
H      4.052368   -3.417252   -3.553003
H      4.502938   -5.149937   -1.839333
H      1.538723   -0.891431   -2.647063
H      2.500004   -0.208156   -1.317485
H     -5.503287   -1.896494    4.152782
H     -4.343898   -1.165327    5.248055
H      4.740410   -2.521470   -1.542411
H      3.539091   -1.504553   -2.314306
H     -3.007810   -2.341121    3.873807
H     -4.051062   -2.146905    2.439671
H     -0.020395    0.588042   -1.985402
H      0.860302    1.108916   -0.583161
H     -0.424541   -2.190516    2.932639
H     -1.856522   -3.066446    2.355970
H     -1.513533    1.575712   -0.301728
H     -1.478087    2.070165    1.392041
H     11.473006    5.065840    0.995037
H     11.022653    6.398684   -0.078873
H     -2.537671    2.878740   -4.563809
H     -2.448253    4.072063   -3.189983
H      6.518470    2.174105   -0.102317
H      7.090863    1.052905   -1.362432
H     -8.532605    1.883160   -0.496928
H      1.046239   -2.865443   -1.438859
H     -1.182805   -3.174079    0.123217
H     -3.685631    2.098711    0.760166
H      9.237373    5.065110   -1.072111
H     -4.632417    3.209643   -2.335404
H      7.012807   -0.839367    0.297182
H     -2.586517   -1.438556    0.937122
H     -6.359357    0.114601    3.674509
H      1.142448   -1.483981    1.181264
H    -10.849007    0.060801    0.042555
H     11.959205    3.706551   -0.833638
H     -4.677574    1.949942   -5.036844
H      6.805904    1.504249    2.121910
H    -10.571874   -0.809385   -2.449555
H      9.823012    3.424088   -2.994732
H      5.046207    0.453310    3.602401
H     -5.917069   -0.056091   -3.996266
H     10.909020    1.591222   -0.787404
H     -8.574073    0.552982   -2.911051
H      3.600405   -1.175838    2.614331
H     -5.253675   -0.676359   -1.769206
H     -4.507625   -0.354379    1.579995
H      8.254966    2.939029   -1.289185
H     -6.771655   -1.143088   -1.254376
H      5.189749   -2.107659    0.388347
H     -4.649526    2.217435   -0.898878
H      8.804384    6.128184    1.006589
H     -4.534641    4.779231   -3.882653
H      0.001560   -4.792452    0.727887
H     -5.903350    0.451484    5.786250
H    -10.982710    2.184804   -0.734738
H     12.425108    5.543289   -1.767266
H     -6.367949    3.125975   -3.236507
H      7.548178   -1.223857    2.117997
H    -10.416029   -2.447993   -1.038809
H     12.226708    1.901936   -2.669101
H      4.414502    2.123309    2.126630
H     -3.946874   -1.126927   -3.783887
H      9.634464    0.063440   -1.708070
H     -8.898214   -1.702404   -3.695615
H      5.130929   -2.127321    3.718316
