66

C     -6.078214   -0.538687   -0.735011
C     -5.882032    0.550661   -1.668482
C     -5.222883   -1.421627   -0.289790
C     -6.200721    1.917415   -1.159252
C     -3.805214   -1.420193   -0.693556
C     -5.417396    2.473685   -0.028890
C     -1.898475   -3.312828    2.011838
C     -0.960717   -3.984480    1.020145
C      6.689942    1.097349   -1.299190
C      6.874586    1.582408    0.993699
C      4.093250   -0.162386   -0.777995
C      3.968303    1.317206    1.080529
C      7.961736    1.553308   -1.518555
C      8.162426    2.044746    0.763562
C      2.727838   -0.414277   -0.618774
C      2.625955    1.055499    1.214675
C     -2.957076   -3.764045   -0.009720
C      6.099550    1.092090   -0.051421
C      4.715462    0.715506    0.083714
C     -3.103557   -2.815641    1.226783
C     -1.478335   -3.367255   -0.273725
C      8.739280    2.047896   -0.470337
C      1.936495    0.157941    0.350776
C     -2.872012   -1.545890    0.491910
C     -5.916760    3.884442    0.195038
C     -1.466400   -1.920000   -0.172341
C     10.102358    2.566479   -0.710201
F     10.566069    2.145336   -1.969212
F     11.001124    2.251529    0.266098
F      9.983415    3.974242   -0.841784
N     -0.480231   -1.442147    0.817989
O     -5.109526    4.785257    0.342889
O     -7.288065    4.089122    0.228716
O     -0.420734    0.617763   -0.789203
O     -0.192856    1.067044    1.567002
S      0.227094    0.057086    0.493043
H     -7.136920   -0.626033   -0.326227
H     -4.869660    0.548419   -2.155314
H     -6.563162    0.389637   -2.619836
H     -5.576187   -2.211859    0.447746
H     -7.310281    1.981489   -0.846189
H     -6.193020    2.641174   -2.029510
H     -3.588604   -2.015906   -1.570893
H     -3.573738   -0.338591   -1.072566
H     -5.568583    1.947407    0.912236
H     -4.325783    2.519625   -0.261891
H     -2.225984   -4.049721    2.788359
H     -1.361616   -2.544292    2.579584
H     -1.339897   -5.040808    0.973363
H      0.080681   -3.921625    1.210390
H      6.116066    0.718759   -2.164041
H      6.427679    1.584412    1.986717
H      4.631481   -0.650980   -1.558782
H      4.460851    1.977680    1.752415
H      8.414319    1.547012   -2.498110
H      8.738526    2.423000    1.627301
H      2.264071   -1.124715   -1.347519
H      2.063463    1.540265    1.995200
H     -2.986843   -4.802465    0.431657
H     -3.636186   -3.616516   -0.782241
H     -4.032714   -2.908301    1.741309
H     -1.074038   -3.849920   -1.157888
H     -2.790498   -0.650183    1.053388
H     -1.422196   -1.288291   -1.059066
H      0.316824   -2.142242    0.736684
H     -7.661729    5.029015   -0.049292
