66

C     -3.563178    1.518552    1.366670
C     -3.750992   -0.941381    1.690622
C      2.324620    3.504905    1.595135
C      4.112408   -3.312053   -0.738693
C      1.732657    2.369468    2.357777
C      3.364081    3.098495    0.602287
C      2.777945   -3.324662   -0.024151
C      4.023781   -2.349428   -1.900774
C      2.170445    1.075937    1.689511
C      2.853291    2.085971   -0.400683
C      2.535446   -1.926552    0.448437
C      3.635668   -0.940689   -1.404915
C     -4.545888    1.249166   -1.182617
C     -3.024666    1.082225   -1.322626
C     -4.638821   -1.166407   -0.941438
C     -1.274117    0.011585    0.130847
C     -4.908094    0.134642   -0.235063
C      1.822706    1.141200    0.248473
C      2.292407   -1.051016   -0.800889
C     -3.109812   -1.320225   -0.966948
C     -3.700520    0.181058    0.717586
C     -2.650391   -0.035794   -0.383228
N      1.541083    0.002468   -0.442637
O     -2.724665   -2.437070   -0.226056
O     -0.283129    1.064249   -2.078743
O     -0.198140   -1.321385   -1.936939
S     -0.040215   -0.056651   -1.106524
H     -4.571690    1.969652    1.440156
H     -3.191324    1.403670    2.426737
H     -2.866345    2.198931    0.873874
H     -4.197095   -0.532919    2.645026
H     -4.464510   -1.761840    1.397856
H     -2.795558   -1.380046    1.969766
H      2.772311    4.278916    2.251115
H      1.509953    4.014415    1.036894
H      4.903321   -3.007237   -0.032097
H      4.285993   -4.307393   -1.144786
H      0.616876    2.413840    2.402173
H      2.174660    2.371924    3.378071
H      3.667993    4.012507    0.048474
H      4.312309    2.743176    1.091826
H      2.009282   -3.573888   -0.813412
H      2.725828   -4.075589    0.774790
H      3.323783   -2.721589   -2.649060
H      5.056055   -2.234540   -2.294930
H      3.285782    1.060853    1.872219
H      1.669848    0.274694    2.266352
H      2.384355    2.676660   -1.215813
H      3.748617    1.533545   -0.747331
H      1.697848   -1.835824    1.157344
H      3.445272   -1.583336    0.983947
H      4.393209   -0.756885   -0.586319
H      3.745303   -0.305417   -2.271817
H     -5.054514    1.181919   -2.146312
H     -4.752761    2.204876   -0.652559
H     -2.856105    0.699221   -2.361522
H     -2.498717    2.018629   -1.127250
H     -5.040482   -1.051915   -1.980173
H     -5.135894   -2.033028   -0.508199
H     -1.148756    0.994667    0.673696
H     -1.161417   -0.756969    0.921882
H     -5.852606    0.220462    0.261211
H      0.881027    1.783759    0.200579
H      1.694906   -1.743765   -1.472951
H     -2.833314   -1.504143   -2.004046
H     -2.657352   -3.226602   -0.819835
