73

C      5.464680    4.734634    0.648708
C     -6.540901   -1.550645   -0.998934
C      4.518798    1.192695    2.683828
C      4.166208   -1.065532   -1.519048
C      5.161861    3.717496   -0.144338
C     -6.090467   -1.210571    0.396333
C     -0.904199    1.730289    0.504655
C      1.037765   -4.107695   -2.324018
C      0.216750    0.910645    0.436368
C      1.280252   -2.893136   -1.705580
C     -2.165551    1.161186    0.471783
C      0.486665   -5.115994   -1.581888
C     -6.012129    3.033335    1.551868
C     -5.827043    3.122606   -0.796680
C     -5.606996    1.728562    1.546306
C     -5.417203    1.809647   -0.823008
C      5.444084    2.326857    0.267254
C     -1.162480   -0.969937    0.307312
C      0.437430   -3.720933    0.309140
C      3.641700    1.195600   -0.862413
C      3.077491   -0.284609    1.422305
C      4.335794    0.487881    1.329365
C      3.022424   -0.181470   -0.979817
C      0.102197   -0.449279    0.337214
C      1.004074   -2.643315   -0.402622
C     -2.332256   -0.192794    0.373080
C     -6.135192    3.772558    0.380675
C     -5.295778    1.071333    0.361773
C      0.175494   -4.943394   -0.252250
C      1.267760   -1.350708    0.291716
C     -3.625464   -0.847186    0.336298
F     -6.533565    5.058452    0.389321
N      4.280752    1.502768    0.343806
N     -4.908056   -0.285763    0.359271
N      2.541362   -0.782774    0.173969
O     -0.383525   -5.980049    0.476586
O     -3.630793   -2.143729    0.272667
H      5.272618    5.754299    0.379898
H      5.925005    4.545869    1.608154
H     -6.236368   -0.801024   -1.753634
H     -6.125743   -2.548143   -1.292669
H     -7.660539   -1.676027   -1.026038
H      3.960193    0.619115    3.479842
H      5.590838    1.281541    2.924340
H      4.005718    2.174399    2.625291
H      4.227130   -2.027701   -0.937201
H      5.146814   -0.599655   -1.411380
H      3.982178   -1.373563   -2.557608
H      4.705372    3.933842   -1.099989
H     -6.871746   -0.713835    0.980297
H     -5.734826   -2.119865    0.940879
H     -0.821271    2.792413    0.582595
H      1.293329   -4.216985   -3.378546
H      1.167758    1.422652    0.463507
H      1.699067   -2.129044   -2.333490
H     -3.006205    1.827256    0.535107
H      0.303836   -6.066399   -2.088802
H     -6.262389    3.564483    2.477939
H     -5.914717    3.680565   -1.739544
H     -5.517308    1.162720    2.480225
H     -5.182796    1.336187   -1.767426
H      6.024187    2.304090    1.215143
H      6.146330    1.894986   -0.505858
H     -1.314035   -2.035548    0.229580
H      0.190246   -3.563263    1.368036
H      4.366522    1.299660   -1.719093
H      2.882550    2.004778   -1.086106
H      2.350982    0.236303    2.052828
H      3.344953   -1.236941    1.996010
H      5.218547   -0.194904    1.222590
H      2.225827   -0.032111   -1.752814
H      1.290967   -1.718453    1.418037
H      0.235033   -6.618731    0.955040
