42

C     -4.814788   -0.584917   -0.867300
C      4.820898   -2.897070    0.797906
C     -4.099884    0.725671   -1.048377
C     -2.659277    1.351811    2.201744
C     -2.045988    0.030548    1.799524
C      4.981783    0.579630   -1.557062
C      4.923866   -0.557101   -0.785538
C     -3.870865    1.379529    1.262852
C     -0.835388    0.584535   -0.255137
C     -2.208443    0.087964    0.297146
C      3.826366    1.291962   -1.767303
C      3.729115   -0.955039   -0.246569
C      2.577986   -0.231646   -0.465353
C      2.594177    0.906083   -1.227293
C      1.305251   -0.697879    0.127453
I      3.895587    3.035565   -2.944243
N      0.197481   -0.223848    0.056065
N     -3.207353    1.072980    0.008120
O      1.490590    1.678842   -1.488318
O      1.426963   -1.897726    0.901294
O      3.698340   -2.101449    0.525351
H     -5.905477   -0.491012   -1.056863
H     -4.439590   -1.288930   -1.648320
H     -4.612771   -1.034694    0.123528
H      5.196731   -3.447915   -0.091641
H      5.640130   -2.262101    1.241239
H      4.518867   -3.653670    1.570114
H     -3.573194    0.780231   -2.018635
H     -4.899645    1.523722   -1.063815
H     -2.004232    2.159601    1.882896
H     -2.969046    1.375203    3.259033
H     -2.573620   -0.842171    2.239912
H     -0.974657    0.054398    2.098547
H      5.898892    0.918019   -1.993137
H      5.835095   -1.126432   -0.613811
H     -4.329253    2.368261    1.194939
H     -4.605512    0.608321    1.556207
H     -1.011413    0.776793   -1.367358
H     -0.670728    1.627003    0.137710
H     -2.414627   -0.891638   -0.158195
H      1.535466    2.487072   -2.067972
H      0.632168   -2.218507    1.450659
