63

C      3.240428    0.503067   -0.519098
C      2.465955    0.584558   -1.767262
C     -3.865604    2.701836   -2.783471
C     -2.955054    3.491578   -2.084980
C     -4.301377    1.552740   -2.159558
C      2.740507    0.031808    0.598587
C      2.364805    2.049838   -2.225296
C     -1.720047    2.138919    3.320038
C     -2.498288    3.160976   -0.831282
C     -3.844995    1.216191   -0.899199
C     -2.148982    2.551317    2.077648
C     -1.617725    0.786062    3.621424
C      1.348842   -0.460499    0.709409
C      1.564490    2.082016   -3.503316
C      2.761590   -3.928640    0.832541
C      1.507202   -4.561202    1.419864
C      1.005838   -3.473889   -0.595386
C     -2.372374    0.291497    1.440060
C     -2.941270    2.006503   -0.213909
C     -2.481943    1.616732    1.117782
C      2.170476   -2.745481    0.098657
C      0.335743   -3.913238    0.713080
C     -1.947745   -0.143469    2.670573
C      1.428933   -1.913568    1.104572
C      1.442947    3.481527   -3.981363
C      0.062503   -2.543816    1.287992
N     -0.370626   -2.561108    2.642769
O      1.969979    4.406006   -3.338030
O      0.740338    3.759584   -5.147706
O     -2.091506   -2.002419    4.492018
O     -2.976178   -2.598409    2.336957
S     -1.838842   -1.825748    2.996641
H      4.300466    0.854333   -0.512350
H      1.519978    0.061676   -1.789778
H      3.103170    0.086309   -2.581929
H     -4.211508    2.986301   -3.774720
H     -2.605551    4.394044   -2.561978
H     -5.012773    0.922603   -2.689204
H      3.391662   -0.001683    1.513247
H      1.829928    2.624227   -1.448169
H      3.363679    2.466226   -2.340853
H     -1.464609    2.884567    4.057430
H     -1.788510    3.765837   -0.273334
H     -4.223936    0.308272   -0.469828
H     -2.242150    3.600289    1.804157
H     -1.270342    0.501338    4.625120
H      0.688533   -0.225684   -0.105850
H      0.944674    0.055361    1.638605
H      0.573086    1.617997   -3.346927
H      2.089098    1.435824   -4.248983
H      3.269450   -4.635793    0.147857
H      3.462157   -3.584867    1.621808
H      1.516913   -4.285550    2.511778
H      1.500350   -5.649927    1.287267
H      1.374753   -4.334550   -1.169034
H      0.379855   -2.772797   -1.159524
H     -2.636544   -0.433064    0.679525
H      2.822761   -2.232997   -0.568279
H     -0.520277   -4.542426    0.573707
H      1.937000   -1.952946    2.090785
H     -0.626857   -2.031697    0.584900
H      0.393228   -2.226060    3.252857
H      0.964295    4.603570   -5.664068
