43

C      4.200891   -1.745747    0.185925
C     -5.425992   -0.115649    0.643765
C      0.632328    2.837425   -0.196658
C     -2.219810   -0.896635   -1.924066
C      1.378287    1.800959   -1.002083
C     -0.924253   -0.713604   -1.486355
C     -3.259477   -0.640949   -1.084031
C     -0.407091    2.266403    0.694546
C      1.049320   -1.161700    1.376621
C      1.849761   -2.125511    0.555231
C      2.574598   -0.356701   -0.924915
C      1.726140    0.606431   -0.143670
C     -0.623716   -0.276851   -0.218064
C     -3.013974   -0.201031    0.197945
C      0.016654    1.082351    1.508892
C     -1.697026   -0.023124    0.618565
C      0.571010    0.016337    0.559854
N      2.854502   -1.571327   -0.251677
O     -4.091273    0.044557    1.011364
O     -1.207060    0.411366    1.864617
H      4.680403   -2.601650   -0.351263
H      4.305600   -1.884528    1.280386
H      4.804207   -0.850826   -0.074327
H     -5.658428   -1.213636    0.672665
H     -6.135670    0.357130    1.344796
H     -5.653385    0.304678   -0.364590
H      0.120017    3.499135   -0.938650
H      1.312246    3.498565    0.373066
H     -2.412851   -1.244211   -2.937164
H      2.342080    2.264314   -1.308524
H      0.853222    1.477651   -1.898896
H     -0.144252   -0.925625   -2.175915
H     -4.291372   -0.782753   -1.420267
H     -1.254924    1.917372    0.033275
H     -0.831487    3.070187    1.309232
H      1.577146   -0.826326    2.292861
H      0.137943   -1.694747    1.722285
H      2.291427   -2.870805    1.249584
H      1.138707   -2.701324   -0.098048
H      2.204885   -0.506953   -1.976467
H      3.566377    0.168678   -1.079226
H      2.412180    1.022902    0.657633
H      0.652109    1.285774    2.351233
