45

C      5.082167   -1.538989   -0.161318
C     -3.831470    1.628569    0.166652
C      3.713576   -0.855302   -0.102422
C      3.813171    0.436340    0.651433
C      2.521204    1.172568    0.746144
C      1.942209    1.553433   -0.606431
C      0.664940    2.313324   -0.468563
C     -0.416833    1.583755    0.210201
C     -4.257102   -0.782268    0.687798
C     -3.405887   -2.051315    0.529400
C     -0.112883   -0.798968   -0.646108
C     -1.093894   -1.984224   -0.475716
C     -3.380773    0.208230   -0.050266
C     -0.993148    0.362506   -0.405368
C     -2.021499   -1.498254    0.617545
N     -2.075657   -0.093361    0.450328
H      4.984498   -2.640884   -0.036458
H      5.659803   -1.189337    0.723020
H      5.630788   -1.286548   -1.076485
H     -3.468542    2.283473   -0.642995
H     -3.543357    1.992276    1.152954
H     -4.952557    1.609478    0.036500
H      3.424823   -0.666271   -1.134167
H      2.980968   -1.559513    0.368040
H      4.590876    1.102653    0.230272
H      4.135654    0.199270    1.695998
H      2.744938    2.151934    1.259941
H      1.813550    0.664237    1.403276
H      1.896145    0.658990   -1.225820
H      2.734128    2.198156   -1.118726
H      0.899702    3.281638    0.063492
H      0.271753    2.623296   -1.483366
H     -0.119471    1.301909    1.274110
H     -1.302448    2.288060    0.371623
H     -5.251890   -0.893943    0.262186
H     -4.250924   -0.565331    1.776889
H     -3.628539   -2.420515   -0.502858
H     -3.657563   -2.794624    1.295588
H      0.728620   -0.940642    0.030325
H      0.210553   -0.817294   -1.722947
H     -1.593005   -2.186668   -1.423725
H     -0.482866   -2.834820   -0.154572
H     -3.482483   -0.059157   -1.141453
H     -1.534867    0.660140   -1.368801
H     -1.586408   -1.816008    1.598708
