23

C     -2.676036   -0.896388   -0.186553
C      0.175185    1.345438    0.946320
C     -1.904461    0.329875    0.233399
C      0.238763   -0.656383   -0.575295
C      1.648224   -1.051679   -0.357329
C     -0.447762    0.035591    0.538423
C      2.603719    0.010962   -0.070167
O      3.151261    0.019567    1.079619
O      2.964032    1.016434   -0.947983
H     -3.717096   -0.832207    0.236807
H     -2.759155   -0.931734   -1.297443
H     -2.232088   -1.836396    0.169831
H      0.553603    1.887296    0.040116
H     -0.646778    2.012185    1.367107
H      0.909939    1.281322    1.749783
H     -1.887513    1.106275   -0.583169
H     -2.334982    0.802411    1.131714
H      0.238746    0.053165   -1.469122
H     -0.367094   -1.536767   -0.939993
H      2.044203   -1.642973   -1.238956
H      1.638173   -1.809381    0.486703
H     -0.441918   -0.665147    1.417718
H      3.249035    1.958538   -0.651988
