25

C     -2.217472   -0.929426    0.642252
C     -0.720189   -0.925166    0.983801
C      0.962326    1.326913   -0.347804
C     -2.256566    0.287024   -0.283683
C     -0.339825    1.486345   -1.114350
C      2.080074   -0.656760    0.689621
C      1.202556   -0.144290   -0.426412
C     -0.167186   -0.727261   -0.426906
N     -1.039027    0.239991   -1.028404
O      3.310671    0.028990    0.570827
H     -2.843695   -0.807222    1.518433
H     -2.408190   -1.806158    0.021163
H     -0.565343   -0.020915    1.610211
H     -0.396940   -1.857396    1.440896
H      1.783835    1.889961   -0.863254
H      0.840907    1.639888    0.704055
H     -3.166204    0.319251   -0.892245
H     -2.203842    1.172359    0.405723
H     -0.072150    1.635871   -2.197695
H     -0.920711    2.330106   -0.723155
H      1.625077   -0.341895    1.657846
H      2.263549   -1.731154    0.616790
H      1.674115   -0.371089   -1.412277
H     -0.259256   -1.683964   -0.954435
H      3.833487   -0.354000   -0.190995
