17

C      3.121053   -0.376623   -0.114379
C     -1.625722   -0.352331   -0.772040
C      1.779396    0.262947   -0.073428
C     -0.632513    0.233099    0.209034
C     -2.884170    0.196905   -0.204963
C     -1.358071    0.044724    1.482107
O      1.701977    1.519352   -0.286956
O     -3.883485    0.545591   -0.875572
O     -0.816663   -0.224979    2.580324
O      0.610784   -0.398808    0.178019
O     -2.700811    0.230591    1.169811
H      3.161611   -1.199711    0.633557
H      3.409134   -0.705754   -1.130588
H      3.851298    0.382927    0.230296
H     -1.452203   -0.019797   -1.811370
H     -1.693690   -1.459661   -0.682023
H     -0.587925    1.321527    0.011226
