97

C     -4.605153   -0.354689    1.811112
C     -3.976227   -2.703538    1.272546
C      5.159896   -2.614445    0.272171
C     -5.610671    0.504773   -1.863840
C      0.061172   -6.938638   -1.701075
C     -0.892620   -7.806955   -1.774995
C      0.921926   -5.833113   -1.546886
C     -2.365258   -7.745496   -1.498273
C      0.801261   -4.728449   -0.784235
C     -3.237030   -6.809909   -1.276527
C      1.586421   -3.516387   -0.499701
C     -3.350669   -5.313649   -1.155968
C      2.829623   -3.284654   -0.161679
C     -2.819036   -4.326106   -1.827888
C     -3.734395    1.229129   -0.230194
C     -3.925478    2.409803    0.263568
C     -1.793501    3.568754    1.083664
C      0.228823    4.660798    0.358876
C      2.340167    5.243085   -0.833400
C      4.450208    4.336427    0.135081
C      4.511182    2.157389    1.402640
C      3.285166    0.006659    1.402413
C     -3.891514   -1.236032    0.792957
C      3.692239   -2.119164    0.139009
C     -4.358615    0.256022   -1.144626
C     -3.246230    3.344453    1.186333
C     -1.267952    4.464408    0.010307
C      0.910368    5.663090   -0.485538
C      2.930384    4.326140    0.223926
C      5.032644    2.961049    0.216116
C      4.591029    0.682905    1.066496
C      3.413933   -1.500314    1.516948
C     -2.885289   -2.829354   -1.762136
C     -4.445519   -1.155194   -0.589800
O     -3.845254    4.647348    1.160308
O     -1.266997    3.846843   -1.231129
O      0.963877    6.866389    0.254202
O      2.564720    4.684457    1.505356
O      6.419538    3.071105    0.280571
O      5.670753    0.108544    1.716339
O      2.230776   -1.975511    2.049687
O     -1.707207   -2.248110   -1.967212
O     -3.898053   -1.988944   -1.541519
H     -5.014103   -0.947524    2.675973
H     -3.867083    0.335225    2.296852
H     -5.395837    0.268210    1.382776
H     -3.117276   -3.213874    0.806041
H     -4.907784   -3.182630    1.014409
H     -3.795587   -2.679218    2.369191
H      5.872645   -1.885781   -0.147083
H      5.380475   -2.862843    1.345816
H      5.296499   -3.564446   -0.309909
H     -6.447402   -0.102490   -1.444427
H     -5.601168    0.297166   -2.952507
H     -5.938302    1.577947   -1.749439
H      1.121666   -7.781054   -1.960550
H     -0.743377   -8.907033   -2.122264
H      1.874327   -5.932756   -2.226246
H     -2.736554   -8.855070   -1.478592
H     -0.199373   -4.574887   -0.172724
H     -4.363619   -7.181957   -1.093934
H      0.848165   -2.619064   -0.615062
H     -4.044195   -5.149583   -0.254361
H      3.609201   -4.152142   -0.037765
H     -2.076365   -4.450459   -2.713010
H     -2.793709    0.602088    0.090126
H     -4.919741    3.012663    0.043339
H     -1.309870    2.562875    1.019870
H     -1.382169    3.939481    2.095334
H      0.715474    3.681476    0.175799
H      0.255288    4.881390    1.437865
H      2.972070    6.182683   -0.869964
H      2.414307    4.763975   -1.816410
H      4.900728    5.027459    0.892837
H      4.749767    4.753068   -0.855768
H      3.494925    2.481700    1.665901
H      5.149302    2.434889    2.281801
H      2.564061    0.204139    0.602808
H      2.947523    0.384489    2.379165
H     -2.803939   -1.023961    0.892776
H      3.786329   -1.285264   -0.555316
H     -3.569558    0.105740   -2.024491
H     -3.448427    3.088042    2.277225
H     -1.780324    5.462798   -0.014385
H      0.337047    5.828281   -1.435779
H      2.656087    3.255977   -0.023757
H      4.798819    2.455893   -0.765301
H      4.816631    0.544740   -0.034249
H      4.222057   -1.685160    2.244127
H     -5.568238   -1.393696   -0.435286
H     -3.709553    5.121654    0.323130
H     -0.429974    3.964581   -1.721389
H      0.030525    6.983651    0.623355
H      3.231622    5.239873    1.980335
H      6.729958    4.016313    0.382675
H      5.461027    0.022351    2.671054
H      2.253561   -2.060845    3.064684
