67

C     -2.882274   -1.003682    0.011731
C     -2.464657   -0.701349   -1.365385
C      6.282749   -5.813171   -0.926078
C      6.766495   -4.984359    0.076695
C      5.142180   -5.391794   -1.572123
C     -2.460341   -0.286515    1.021815
C     -1.723823   -1.858653   -2.003230
C      6.148146   -3.809520    0.411612
C      4.499302   -4.191751   -1.239962
C     -1.564056    0.845713    0.896833
C     -2.503032   -3.121678   -2.103492
C     -4.401460    3.203827    1.606128
C     -3.548876    4.461706    1.792188
C      2.999583    0.211389    1.345316
C      2.184910    0.695356   -0.799467
C      2.501526    1.404439    1.810638
C      1.685487    1.889100   -0.340255
C     -3.122623    3.575417   -0.284533
C      2.858621   -0.178274    0.035988
C     -3.508689    2.416986    0.645650
C     -2.416098    4.381006    0.834925
C      4.987035   -3.394015   -0.255901
C      1.826045    2.286073    0.980766
C     -2.242868    2.114500    1.422095
C     -3.718658   -3.073325   -2.913249
C     -1.398675    3.309155    1.178159
C      3.396740   -1.450466   -0.489497
N      4.410944   -2.164406    0.170435
N     -0.385352    3.668211    2.038006
O     -4.093225   -2.057086   -3.552309
O     -4.577720   -4.184217   -3.040208
O      2.904874   -1.858175   -1.551059
O      1.493301    4.927801    0.603796
O      2.034210    4.139605    2.799606
S      1.193664    3.808951    1.563049
H     -3.575274   -1.865238    0.177979
H     -1.972870    0.252698   -1.533272
H     -3.438215   -0.607529   -1.948397
H      6.790831   -6.733409   -1.168366
H      7.670124   -5.303866    0.594270
H      4.755070   -6.027837   -2.355610
H     -2.807789   -0.559783    2.040419
H     -1.404865   -1.589614   -3.053758
H     -0.776341   -2.086131   -1.471820
H      6.549702   -3.176684    1.203162
H      3.603920   -3.920131   -1.782252
H     -0.735552    0.676373    1.665723
H     -1.036756    1.009584   -0.027616
H     -2.750618   -3.553414   -1.100297
H     -1.821953   -3.867710   -2.608872
H     -5.382933    3.442788    1.156592
H     -4.553473    2.666801    2.557664
H     -4.183935    5.320898    1.488481
H     -3.274047    4.616364    2.844151
H      3.515727   -0.441383    2.028679
H      2.062344    0.414141   -1.824695
H      2.630083    1.681498    2.846978
H      1.157242    2.565832   -1.012410
H     -2.424372    3.276759   -1.063441
H     -4.019363    4.120173   -0.633996
H     -3.971599    1.585941    0.164793
H     -1.991105    5.303793    0.480763
H     -2.532031    1.919965    2.459460
H     -0.914309    3.123779    0.163558
H      4.753258   -1.706965    1.074179
H     -0.642528    4.092457    2.963206
H     -5.581755   -4.014414   -3.133943
