42

C     -1.201512    1.759066    0.379260
C      0.105618    1.084428    0.163183
C     -2.421076    0.953995    0.124475
C      1.189343    2.117799    0.476736
C     -2.462938   -2.011528   -1.147677
C     -3.820175   -1.551737   -0.745805
C     -2.581405   -0.281346    0.945411
C      2.535077    1.493948    0.276404
C      6.483841   -1.462488   -0.639863
C      5.855281   -0.840991   -1.698365
C      5.865057   -1.549882    0.594304
C      4.598439   -0.304136   -1.517085
C      4.616583   -1.003409    0.731435
C     -3.858377   -1.028537    0.624443
C      3.945224   -0.367791   -0.307362
C     -5.062512    0.257080   -0.833931
F      7.720834   -1.982847   -0.844433
F      6.496763   -0.773714   -2.901899
F      6.518944   -2.170370    1.610655
F      3.974946    0.312274   -2.566791
F      3.971975   -1.064944    1.921057
N     -4.403242   -0.560982   -1.570230
N     -4.984945   -0.101396    0.535567
O      3.588735    2.149939    0.473721
O     -5.758469    1.349778   -1.328891
O      2.677484    0.176076   -0.132207
S     -1.399340   -1.523565    0.266831
H     -1.301500    2.193498    1.410468
H     -1.242429    2.647106   -0.306574
H      0.288489    0.241308    0.861234
H      0.168628    0.752866   -0.889963
H     -3.295648    1.659388    0.241336
H     -2.430944    0.724311   -0.982144
H      1.136756    2.990092   -0.205717
H      1.052373    2.503381    1.505845
H     -2.126062   -1.377422   -2.003155
H     -2.361554   -3.081097   -1.327829
H     -4.487425   -2.464716   -0.783931
H     -2.465424   -0.144958    2.012530
H     -4.014742   -1.772372    1.428786
H     -5.582602    0.216771    1.292142
H     -5.528073    1.837120   -2.175055
