67

C      3.604182    2.314638    0.382504
C      5.043491    2.379229    0.612922
C      2.720520    1.428936    0.786698
C      5.907175    2.424354   -0.605898
C     -8.670503    2.221644   -2.495379
C     -9.190306    0.949329   -2.343656
C     -7.416523    2.491169   -1.938892
C      3.085615    0.288529    1.590446
C     -8.466580   -0.001272   -1.658025
C      5.784623    1.220165   -1.494000
C      3.341500   -2.934277   -0.368385
C      1.841132   -3.253794   -0.395341
C     -3.978112   -1.419702    1.121418
C     -3.041625    0.761348    0.879611
C     -2.893740   -1.845477    1.819654
C     -1.929225    0.357621    1.585007
C      2.230423   -1.095829   -1.180307
C     -5.487844    1.535582   -0.631800
C     -4.060531   -0.137284    0.653980
C      3.363582   -1.416741   -0.189557
C     -6.712096    1.529171   -1.259432
C      1.174027   -1.908015   -0.387460
C     -1.855020   -0.936303    2.051963
C      2.751168   -1.072761    1.106150
C     -7.218374    0.271138   -1.105496
C     -5.243813    0.293248   -0.097113
C      6.652531    1.353218   -2.706449
C      1.258145   -1.314848    0.968148
N     -6.318529   -0.459656   -0.401981
N      0.729576   -2.227219    1.944035
O      6.294115    2.050803   -3.704469
O      7.873951    0.725260   -2.788849
O      0.074158   -0.359261    3.745312
O     -0.945133   -2.550525    3.915800
S     -0.462451   -1.495807    2.958490
H      3.220924    3.176538   -0.245373
H      5.474566    1.627408    1.288109
H      5.228080    3.361929    1.169666
H      1.691830    1.647205    0.453534
H      6.991841    2.525018   -0.306540
H      5.679728    3.340818   -1.206565
H     -9.200699    3.012180   -3.028828
H    -10.165279    0.747599   -2.778855
H     -6.972043    3.485943   -2.038156
H      4.158993    0.316471    1.852131
H      2.572177    0.424015    2.600101
H     -8.867549   -0.996979   -1.536313
H      6.160430    0.298607   -0.969517
H      4.754688    1.025599   -1.820642
H      3.871476   -3.453106    0.427599
H      3.821580   -3.172895   -1.339326
H      1.594197   -3.836463   -1.316535
H      1.661208   -3.879132    0.489564
H     -4.801360   -2.112744    0.928259
H     -3.075593    1.772370    0.526926
H     -2.798129   -2.858022    2.204441
H     -1.103608    1.048004    1.783313
H      2.427314   -1.566318   -2.149395
H      1.988015   -0.041295   -1.217726
H     -4.786288    2.362845   -0.543323
H      4.296511   -0.968628   -0.442675
H      0.202849   -1.874536   -0.872622
H      3.097543   -1.832381    1.861068
H      0.695092   -0.365268    1.112664
H     -6.454443   -1.464020   -0.141463
H      0.197673   -2.986284    1.409348
H      8.598770    1.068912   -3.404182
