53

C      6.009439    1.128605   -1.019820
C     -4.088741    3.602791    0.747356
C     -2.325844   -2.528251   -1.352239
C     -3.625328   -2.447243    0.703070
C      6.211911   -0.250384   -0.421094
C      5.277986   -1.234582   -1.056333
C      3.828937   -0.859350   -0.858680
C      3.475296   -0.795718    0.614558
C     -4.030141    1.586026   -0.891472
C     -3.950329    0.070117   -0.735432
C     -2.698399    1.669823    1.171612
C      1.642118    0.877218    0.753182
C      1.063279   -1.395655    0.707896
C     -3.561142    2.253507    0.361955
C      2.036007   -0.420735    0.693553
C     -2.110192    0.397001    0.940911
C     -2.618883   -0.364847   -0.273473
C      0.274943    1.262713    0.829759
C     -0.257662   -1.097698    0.780001
C     -0.640554    0.268881    0.843615
C     -2.479536   -1.824716   -0.011581
O      0.014551    2.615725    0.875526
O     -1.299451   -2.057686    0.792978
H      5.187478    1.614750   -0.449079
H      5.715559    0.958563   -2.090667
H      6.931464    1.726807   -1.045013
H     -3.906741    3.812262    1.802132
H     -5.180356    3.624550    0.545316
H     -3.568766    4.336069    0.091292
H     -2.131699   -1.812428   -2.164098
H     -3.241252   -3.098880   -1.623559
H     -1.505222   -3.271607   -1.276483
H     -4.346786   -2.943369   -0.007818
H     -3.248581   -3.302036    1.335757
H     -4.168194   -1.785754    1.384242
H      7.250232   -0.554670   -0.647493
H      6.055521   -0.256703    0.679064
H      5.425294   -2.237360   -0.627365
H      5.451070   -1.304478   -2.148099
H      3.194505   -1.634827   -1.326833
H      3.564009    0.109941   -1.299177
H      3.584281   -1.795920    1.090820
H      4.066489   -0.023229    1.142732
H     -3.407603    1.961791   -1.717834
H     -5.096844    1.826778   -1.066406
H     -4.201368   -0.343632   -1.732578
H     -4.755099   -0.240931   -0.042071
H     -2.471680    2.226606    2.106147
H      2.373285    1.690714    0.744519
H      1.366876   -2.461765    0.659016
H     -2.363832   -0.232311    1.874947
H     -1.892477   -0.119138   -1.105852
H     -0.827828    3.074666    0.890355
