57

C      1.743010   -1.161175    1.584637
C     -4.301816    0.750440    1.426873
C     -4.356387   -1.280343    0.107752
C     -1.129779    1.941282   -0.044209
C      3.904364    2.458714    1.277649
C     -2.907723    0.174276   -2.066792
C     -0.644761   -0.854734    2.314448
C      5.306447   -0.759082   -0.934247
C      4.819155    0.301142   -0.209008
C     -1.840895    0.003130    2.048253
C     -3.768279    0.786714   -1.014198
C     -1.451479    0.083039   -1.701549
C      1.181480    0.170673   -0.974787
C      0.394876   -0.637685    1.223670
C      2.558426   -0.166225   -0.947828
C      0.210314   -0.062636    0.084016
C      4.441657   -1.541423   -1.676903
C      3.477873    0.569159   -0.232033
C     -2.178722   -0.267091    0.575021
C      3.093198   -1.241999   -1.677128
C     -3.607953    0.025183    0.283899
C     -1.202592    0.476012   -0.241253
O      4.955209   -2.607833   -2.402406
O      2.259390   -2.039228   -2.425846
O      3.017198    1.666976    0.525010
H      2.364038   -0.433587    2.140879
H      1.535763   -1.933075    2.419609
H      2.230198   -1.783770    0.851560
H     -5.152852    1.325938    0.957155
H     -4.786081    0.055578    2.142797
H     -3.632449    1.401293    1.997417
H     -4.875771   -1.569364    1.057810
H     -5.126838   -1.222142   -0.678573
H     -3.651078   -2.131571   -0.110925
H     -1.311097    2.435996   -1.037457
H     -0.103181    2.298407    0.244376
H     -1.867068    2.371112    0.652558
H      4.301725    1.876405    2.130383
H      4.726119    2.790541    0.578257
H      3.407567    3.355916    1.695255
H     -3.035807    0.772822   -2.996031
H     -3.298221   -0.843463   -2.275300
H     -0.207764   -0.561167    3.304668
H     -0.938492   -1.914590    2.341835
H      6.380428   -0.971974   -0.914617
H      5.511142    0.922162    0.381084
H     -2.704211   -0.272511    2.688793
H     -1.587908    1.069858    2.196056
H     -3.631589    1.870814   -0.878975
H     -4.827840    0.649393   -1.352913
H     -0.876149    0.748489   -2.372002
H     -1.155324   -0.996481   -1.832371
H      1.051986    1.252080   -1.391755
H      0.746389   -0.375065   -1.895160
H     -1.996894   -1.354379    0.398464
H      5.945253   -2.797027   -2.378813
H      2.593794   -2.823921   -2.967108
