58

C     -6.234169   -1.585635   -0.078803
C      2.357263    0.150362    2.451052
C      3.517351    0.161796    1.549153
C      1.175084   -0.680675    2.285020
C      3.257155    0.526808    0.156546
C      0.319722   -0.417904    1.119243
C      4.522795    0.642518   -0.695098
C     -0.867914   -1.413732    1.244088
C      5.298003   -0.618173   -0.770179
C     -1.755599   -1.209334    0.078398
C      6.522223   -0.510670   -1.615590
C     -2.298963    0.182258    0.036463
C     -3.790830    1.602621   -1.315360
C     -5.203166    1.585065   -1.827454
C      7.543765    0.477912   -1.211583
C     -5.357531   -0.359655   -0.319823
C     -3.208386    0.224970   -1.211687
C     -6.115066    0.726714   -1.010897
N     -4.194960   -0.801091   -1.027045
O      7.173537    1.790643   -1.167492
O     -7.078043    0.131856   -1.843222
H     -6.830808   -1.385312    0.817778
H     -6.870280   -1.775725   -0.976273
H     -5.559969   -2.431567    0.099456
H      2.803647    0.021177    3.512172
H      2.044978    1.273732    2.557582
H      4.211904    0.974441    1.983056
H      4.089997   -0.818458    1.630784
H      0.514071   -0.494465    3.204496
H      1.445417   -1.784614    2.356961
H      2.630215    1.410118    0.071758
H      2.675061   -0.339026   -0.303188
H     -0.070974    0.628062    1.217693
H      0.661927   -0.557572    0.118217
H      4.193587    1.023725   -1.680969
H      5.117418    1.452113   -0.223287
H     -1.415284   -1.183057    2.176004
H     -0.457946   -2.430903    1.309340
H      4.634109   -1.368139   -1.300875
H      5.487408   -1.094999    0.213106
H     -1.162607   -1.396077   -0.858836
H     -2.626349   -1.904190    0.068699
H      6.189742   -0.296504   -2.674734
H      7.053216   -1.502814   -1.719031
H     -1.570438    0.989988    0.000922
H     -2.997823    0.328111    0.896957
H     -3.197986    2.228468   -2.024165
H     -3.767292    2.072444   -0.326600
H     -5.177514    1.307807   -2.903039
H     -5.563610    2.652959   -1.792088
H      8.046323    0.237014   -0.244182
H      8.383435    0.409892   -1.966159
H     -5.048179   -0.010692    0.689543
H     -2.543007    0.017632   -2.074632
H     -6.595322    1.353908   -0.230901
H     -4.393686   -1.368450   -1.867549
H      7.937841    2.385812   -1.389045
H     -7.853493    0.768507   -1.910328
