33

C      1.074092   -0.561939    1.456975
C     -1.086966   -2.017844   -0.558805
C     -3.043608    1.304662    1.225703
C     -1.659822    1.315083    1.078667
C      0.372607   -1.849269   -0.879291
C      2.610550    1.331965    0.179074
C      1.119715    1.575576    0.298633
C     -3.118659   -0.856289    0.211646
C     -1.718307   -0.832803    0.069024
C     -3.766526    0.214569    0.789358
C     -1.007378    0.263379    0.509436
C      0.679218   -0.409123   -1.019238
C      2.835457    0.686934   -1.137103
C      0.460486    0.238294    0.332747
Br    -5.663512    0.244094    1.011191
N      1.934860   -0.073147   -1.606783
O      4.037498    0.958180   -1.786399
H      1.347734    0.148960    2.287535
H      0.324226   -1.245943    1.871633
H      1.955633   -1.133449    1.173760
H     -1.634762   -2.214297   -1.524497
H     -1.252805   -2.900422    0.107109
H     -3.509924    2.159952    1.681557
H     -1.106941    2.168907    1.421956
H      0.631803   -2.349158   -1.851966
H      0.986930   -2.376447   -0.119886
H      3.195839    2.262635    0.298684
H      2.964331    0.626712    0.970069
H      0.908322    2.217638    1.177471
H      0.792162    2.107149   -0.622384
H     -3.710590   -1.693383   -0.119375
H     -0.109799    0.031283   -1.699812
H      4.158137    0.657542   -2.764453
