36

C     -2.275264   -3.721140   -0.257718
C     -4.080406    1.066271   -1.344696
C     -4.643138    1.791904   -0.317211
C      5.900119    0.344500    0.349176
C      4.689924    0.882559    0.465115
C     -2.877489    0.418788   -1.087163
C     -4.043170    1.878303    0.922567
C      2.360180    1.163296   -0.677364
C      1.369536    0.163234   -0.073021
C      6.239519   -0.392806   -0.740015
C      3.756549    0.700130   -0.521650
C     -2.284028    0.513002    0.163348
C     -2.841636    1.229689    1.174925
C     -0.981004   -0.234308    0.309528
C     -1.100257   -1.562187   -0.264898
Cl    -2.046915    1.313569    2.735157
N      0.023818    0.600950   -0.220189
O     -0.365785   -1.976787   -1.185046
O     -2.063059   -2.427291    0.210062
S      4.633155   -0.296038   -1.698060
H     -1.452206   -4.418584   -0.076040
H     -2.495896   -3.647853   -1.361731
H     -3.228017   -4.119562    0.185606
H     -4.576597    1.017865   -2.306199
H     -5.572458    2.310281   -0.466252
H      6.708425    0.468699    1.142558
H      4.388330    1.497448    1.360368
H     -2.436224   -0.148399   -1.886234
H     -4.470736    2.446458    1.751171
H      2.283556    2.147116   -0.173326
H      2.175920    1.288467   -1.768605
H      1.597490   -0.801944   -0.531927
H      1.611477    0.125969    1.009502
H      7.051711   -0.903803   -1.088280
H     -0.828978   -0.331461    1.416460
H     -0.126449    1.613668   -0.135550
