58

C     -5.600653   -2.258263    1.192362
C      2.258698    0.756567    0.168862
C      3.271958    1.757490    0.616754
C      1.179977    1.560152   -0.627093
C      4.352707    1.242752    1.449316
C      0.166132    0.522304   -1.069088
C      5.329980    0.245064    1.038149
C     -0.911479    1.208368   -1.844691
C      4.934928   -1.126595    0.688685
C     -1.934431    0.214853   -2.300381
C      6.181184   -1.956648    0.359415
C     -2.612996   -0.523914   -1.196982
C     -4.449707    1.149246   -0.800258
C     -5.556368    1.390959    0.231269
C      6.965729   -1.422543   -0.788394
C     -5.233248   -1.065849    0.348036
C     -3.358497    0.332490   -0.228239
C     -6.238109    0.057146    0.491918
N     -3.953822   -0.573635    0.766975
O      8.082911   -2.259908   -1.020541
O     -6.821140    0.053403    1.741144
H     -6.381710   -1.929678    1.901518
H     -5.915307   -3.115504    0.563254
H     -4.725656   -2.594351    1.793697
H      2.611819   -0.010920   -0.525494
H      1.710556    0.285204    0.988581
H      2.734414    2.569674    1.226696
H      3.640194    2.369710   -0.262192
H      0.730735    2.292775    0.067582
H      1.679271    2.078444   -1.444233
H      3.924986    0.874182    2.470434
H      4.981550    2.135858    1.854199
H      0.613862   -0.260448   -1.691000
H     -0.198262    0.033681   -0.144653
H      6.088985    0.164608    1.896971
H      5.981670    0.717988    0.232125
H     -1.348243    2.077859   -1.315578
H     -0.434904    1.629252   -2.765428
H      4.522634   -1.616543    1.615765
H      4.232583   -1.301399   -0.110903
H     -2.664017    0.671474   -3.020822
H     -1.388297   -0.551436   -2.911304
H      5.805774   -2.963320    0.084202
H      6.830058   -2.013555    1.237329
H     -3.261890   -1.297909   -1.654915
H     -1.835594   -1.079005   -0.630400
H     -4.108970    2.168974   -1.110087
H     -4.954542    0.710111   -1.679755
H     -6.292777    2.110432   -0.187834
H     -5.106698    1.817608    1.127540
H      6.405057   -1.365949   -1.739536
H      7.430211   -0.445546   -0.501263
H     -5.243552   -1.383439   -0.714451
H     -2.672300    0.984038    0.350466
H     -7.028285   -0.033766   -0.306532
H     -3.249495   -1.297798    0.960209
H      8.620470   -1.800868   -1.725821
H     -7.788086    0.066123    1.646149
