27

C     -3.502397   -0.195756   -1.136258
C     -2.119120    0.450902    0.750940
C     -0.904995    1.043414    1.363476
C      1.025148    0.921446   -0.092615
C      2.238137    0.407778   -0.517552
C      0.968584   -0.618030    1.681931
C     -2.172663    0.457834   -0.732863
C      0.363913    0.422711    1.013053
C      2.785809   -0.626122    0.190697
C      4.073814   -1.169264   -0.263207
N      2.150428   -1.116025    1.265126
O     -1.139968   -0.254797   -1.332704
O      4.726264   -0.658726   -1.375081
O      4.568673   -2.115892    0.390777
H     -4.256373   -0.045551   -0.313741
H     -3.919915    0.286191   -2.042637
H     -3.354040   -1.267111   -1.369101
H     -2.328676   -0.589506    1.098811
H     -2.994735    1.050384    1.115559
H     -0.878390    2.125715    1.092543
H     -1.025170    0.942806    2.481558
H      0.633956    1.745690   -0.694321
H      2.737454    0.822191   -1.394920
H      0.462458   -1.025002    2.556616
H     -2.152219    1.484763   -1.105117
H     -1.378863   -1.221604   -1.372858
H      5.392885   -1.258441   -1.854350
