41

C     -5.915320    0.910795    0.192723
C      5.684338    0.364546    0.674029
C     -4.455160    0.913363   -0.201024
C      4.372295    0.297187   -0.139062
C     -3.720035   -0.235006    0.499862
C      3.396479    1.260384    0.439985
C     -2.249363   -0.220734    0.094122
C      2.103920    1.321077   -0.250992
C     -1.582985   -1.351532    0.799772
C      1.606631   -1.084968   -0.966286
C      0.173455   -1.729151   -0.955537
C      1.188492    0.207102   -0.324775
C     -0.127457   -1.494340    0.522736
N      0.632224   -0.303390    0.920867
H     -6.245344    1.916820    0.523099
H     -6.126146    0.195034    1.017593
H     -6.559119    0.663545   -0.700789
H      5.537399   -0.306361    1.546500
H      6.488094   -0.005171    0.037542
H      5.852207    1.422207    0.960889
H     -4.362935    0.780929   -1.289721
H     -3.954632    1.861197    0.105682
H      4.658912    0.640494   -1.163746
H      4.087470   -0.741054   -0.159999
H     -4.213394   -1.178500    0.191853
H     -3.833887   -0.153638    1.592044
H      3.258564    1.058184    1.546719
H      3.900111    2.266374    0.432725
H     -1.851748    0.757334    0.429946
H     -2.165860   -0.297419   -0.993455
H      1.534963    2.211490    0.162590
H      2.286450    1.668381   -1.329625
H     -2.110888   -2.287760    0.494552
H     -1.772468   -1.232893    1.884321
H      2.006796   -1.024900   -1.965906
H      2.138598   -1.766363   -0.258487
H     -0.401967   -1.085734   -1.626624
H      0.241709   -2.780817   -1.222406
H      0.267389    0.554728   -0.907185
H      0.279627   -2.362045    1.071947
H     -0.047415    0.370604    1.340681
