42

C     -7.283150    2.982935    0.423922
C      4.255746   -3.124583   -3.259246
C     -4.031566   -0.978360    0.331928
C      4.946004    1.113012   -0.944729
C     -5.793756    3.004015    0.156160
C      3.863031   -3.379397   -1.809246
C      0.479312    0.056400    1.254348
C      1.469683    0.014339    2.114655
C     -3.296534    0.180087    0.918657
C      4.563644   -0.055732   -0.082204
C     -0.937023    0.096477    1.647417
C      2.881507   -0.024814    1.672207
C     -3.878282    1.492859    0.463399
C      4.784268   -1.297223   -0.882493
O     -1.285734    0.092640    2.849862
O      3.783134   -0.063692    2.540003
O     -3.154426    2.386882   -0.041653
O      5.899208   -1.566888   -1.398646
O     -5.233217    1.754677    0.588260
O      3.758259   -2.193145   -1.079399
O     -1.911879    0.139193    0.691773
O      3.240441   -0.020045    0.355351
H     -7.660453    4.010522    0.685532
H     -7.580467    2.314711    1.232556
H     -7.856423    2.696825   -0.486228
H      5.307406   -2.826970   -3.279366
H      3.585576   -2.324931   -3.635907
H      4.062445   -4.022697   -3.876999
H     -4.609179   -0.725029   -0.580477
H     -4.747329   -1.380833    1.069501
H     -3.291561   -1.795194    0.106828
H      4.649602    2.082420   -0.496619
H      6.071030    1.127892   -0.985272
H      4.619547    0.995789   -1.996709
H     -5.644191    3.156300   -0.925447
H     -5.369592    3.833558    0.768041
H      2.871462   -3.874498   -1.832678
H      4.644557   -4.030989   -1.319329
H      0.741194    0.061066    0.208353
H      1.231993    0.008952    3.167765
H     -3.441857    0.169537    2.018281
H      5.297568   -0.086070    0.769842
