21

C      2.668648    0.520169    0.135535
C      2.578770   -0.820585    0.480149
C      1.561166    1.246513   -0.246025
C      1.361215   -1.460741    0.446657
C     -0.874436    1.347250   -0.679717
C     -1.987574    0.801322    0.210121
C      0.350688    0.580431   -0.271308
C      0.210812   -0.746723    0.061115
C     -2.230184   -0.646377   -0.020819
C     -1.084422   -1.459547    0.030318
O     -1.811655   -1.260602   -1.197482
H      3.642488    1.002164    0.170358
H      3.475936   -1.354070    0.774540
H      1.580116    2.289809   -0.522784
H      1.248581   -2.506639    0.708306
H     -1.091080    1.242046   -1.744456
H     -0.713226    2.392388   -0.350949
H     -2.916291    1.400976    0.054981
H     -1.617271    0.916689    1.265530
H     -3.259957   -0.984745    0.281297
H     -1.092324   -2.499728    0.414635
