63

C      1.100323    3.942722    1.149811
C     -1.471294   -1.600595   -1.773404
C      1.359433   -1.492853    1.708392
C     -5.527915   -1.209253    0.454146
C     -4.491579    0.234523   -1.262699
C      4.164907    0.644393    1.288415
C      5.483782   -0.868868   -0.185860
C      0.074776    3.148008    0.899715
C     -0.099678    2.528098   -0.431329
C     -3.217854   -1.289438    1.555955
C      3.264708   -1.202849   -1.473219
C     -2.355612    0.880443    0.880328
C      2.287250    1.039874   -0.927125
C     -1.757183   -1.138105   -0.337333
C      1.659029   -0.959680    0.302243
C     -3.601301    0.143940    1.136239
C      3.521901    0.270572   -1.143063
C     -3.148952   -1.529095    0.027995
C      3.095444   -1.340936    0.055880
C     -1.502089    0.292379   -0.253505
C      1.325172    0.437920    0.109751
C     -4.228914   -0.544783   -0.047982
C      4.103733   -0.288413    0.164998
B     -0.089247    0.897508   -0.291410
H      1.198777    4.381778    2.138114
H      1.825452    4.141406    0.361114
H     -1.060313   -0.769295   -2.384753
H     -2.413462   -1.991534   -2.232828
H     -0.739760   -2.417424   -1.798822
H      0.766792   -2.404189    1.640600
H      2.272065   -1.587350    2.317236
H      0.732203   -0.714733    2.201175
H     -6.360799   -1.052600   -0.292016
H     -5.434661   -2.285892    0.571772
H     -5.880500   -0.779040    1.388416
H     -3.993982   -0.160307   -2.198934
H     -5.587507    0.203310   -1.560785
H     -4.319293    1.348024   -1.160688
H      3.623605    0.384854    2.204052
H      5.237227    0.794943    1.621333
H      3.880045    1.673588    0.914062
H      5.915051   -0.364981   -1.073171
H      6.196107   -0.626150    0.656412
H      5.471907   -1.953993   -0.266076
H     -0.636974    2.957604    1.686147
H      0.743197    2.834427   -1.119585
H     -0.999672    2.894115   -0.912010
H     -4.071797   -1.825054    2.016850
H     -2.259737   -1.371431    2.065309
H      2.338645   -1.377413   -2.033909
H      4.178806   -1.679352   -1.857589
H     -2.577684    1.943977    0.703339
H     -1.702427    0.809580    1.787491
H      1.739814    1.105677   -1.908626
H      2.565730    2.069921   -0.634024
H     -1.148422   -1.805122    0.332427
H      1.090509   -1.591154   -0.424971
H     -4.263031    0.660829    1.821317
H      4.225777    0.784568   -1.782265
H     -3.404173   -2.567263   -0.257340
H      3.327484   -2.346415    0.434626
H     -2.017537    0.713138   -1.182334
H      1.593700    0.973440    1.073860
