56

C      7.029550   -1.079261    2.662566
C     -6.185654    1.273122   -0.048871
C      5.849246   -1.244914    1.753006
C      1.093132    1.453875   -2.407147
C      0.414561    0.150611   -2.676740
C      2.225426    1.353097   -1.422748
C     -0.195672   -0.490956   -1.468836
C      3.322796    0.447891   -1.830296
C     -1.244755    0.345440   -0.799118
C      4.399865    0.439022   -0.777838
C     -1.761713   -0.453399    0.403574
C      3.935319   -0.036878    0.576577
C     -3.323813   -0.463002    2.303938
C     -4.478218   -1.367312    2.031065
C     -5.153087    0.642895    0.862949
C     -2.831622    0.328104    1.139187
C      5.145747    0.017516    1.481397
C     -5.384606   -0.851630    0.933412
N     -3.846765    0.830330    0.260665
O      5.518594    1.060941    1.962093
O     -4.960188   -1.452861   -0.255215
H      7.695634   -1.957350    2.527074
H      7.638687   -0.181038    2.432351
H      6.695795   -0.976894    3.719365
H     -5.749298    1.507219   -1.043963
H     -7.021950    0.552740   -0.249613
H     -6.541568    2.215631    0.406775
H      5.142842   -1.957986    2.235952
H      6.220502   -1.742982    0.826346
H      0.376232    2.194474   -1.993218
H      1.451869    1.855305   -3.371254
H      1.163155   -0.572169   -3.079881
H     -0.361122    0.250149   -3.459197
H      2.642153    2.373191   -1.293195
H      1.826471    1.038854   -0.437674
H      0.553876   -0.810367   -0.717526
H     -0.699579   -1.425732   -1.820666
H      3.018979   -0.607684   -1.976441
H      3.805965    0.743366   -2.794050
H     -2.085754    0.572286   -1.484797
H     -0.872799    1.295020   -0.400027
H      5.299744   -0.141085   -1.121717
H      4.812531    1.473217   -0.602998
H     -0.952159   -0.693182    1.100222
H     -2.226922   -1.405297    0.080461
H      3.581611   -1.064496    0.483668
H      3.125914    0.564214    0.993939
H     -3.509142    0.194528    3.189008
H     -2.465466   -1.118081    2.628340
H     -5.114378   -1.371486    2.964504
H     -4.203281   -2.431802    1.878028
H     -5.139954    1.081436    1.862242
H     -2.309014    1.236739    1.561774
H     -6.449627   -1.030675    1.119169
H     -3.749615    1.850834    0.061830
H     -5.168475   -2.413528   -0.194185
