43

C     -3.257252   -1.548960    1.028897
C      2.784031   -0.960386   -1.006267
C     -1.236507   -0.803508   -1.596839
C      1.584302    1.279322   -1.068575
C     -2.331635    1.945166   -0.215960
C     -2.995395    0.766402    0.350249
C     -0.849264    1.791003   -0.380165
C      0.875748   -2.029382    0.006295
C     -0.509274   -1.873282    0.509045
C      1.734326    1.279204    1.355928
C      3.175730    1.483521    1.376451
C     -2.475330   -0.443659    0.431583
C      1.782353   -0.848213    0.158933
C     -0.307411    0.561529    0.313957
C     -1.090321   -0.617987   -0.108006
C      1.180948    0.490989    0.185015
O      4.020881    0.621050    1.659617
H     -2.666122   -2.283025    1.572527
H     -3.885635   -1.989446    0.223515
H     -3.978774   -1.102635    1.768595
H      3.738991   -0.483217   -0.794554
H      2.327409   -0.721994   -1.974798
H      3.020549   -2.069511   -1.060210
H     -1.956541   -1.658463   -1.732739
H     -1.723906    0.112312   -2.032779
H     -0.330850   -1.068269   -2.135387
H      1.103209    0.881606   -1.979590
H      2.703951    1.260101   -1.194148
H      1.322770    2.343786   -0.930489
H     -2.801234    2.182347   -1.188348
H     -2.592943    2.825885    0.445191
H     -4.020226    0.942384    0.733404
H     -0.601812    1.804987   -1.434978
H     -0.378148    2.668618    0.148933
H      0.859863   -2.399193   -1.062505
H      1.320381   -2.914533    0.548319
H     -0.578786   -1.879105    1.605516
H     -1.107265   -2.728836    0.092463
H      1.464774    0.762672    2.332393
H      1.227612    2.270919    1.450867
H      3.603936    2.469642    1.125646
H      2.421700   -1.044326    1.069291
H     -0.578832    0.724483    1.403709
