41

C     -6.186587    0.061996    0.864199
C     -5.214482   -0.430142   -0.187389
C     -3.776863   -0.338666    0.286957
C      4.584132   -0.151075    1.112345
C     -2.903584   -0.846130   -0.819533
C      3.128150   -0.319470    0.704672
C      5.520959   -0.598179    0.074963
C     -1.429229   -0.817399   -0.490891
C      2.790121    0.454955   -0.521649
C      6.416186    0.203611   -0.490099
C      0.448002    0.725455    0.136468
C     -1.015941    0.587287   -0.204186
C      1.360712    0.270704   -0.938561
Cl     7.531424   -0.342030   -1.729698
O     -1.341475    1.430892   -1.257233
O      1.182810    0.960757   -2.138992
H     -5.623765    0.613662    1.651741
H     -6.668772   -0.806424    1.364868
H     -6.941815    0.744357    0.451865
H     -5.504164   -1.464789   -0.451114
H     -5.379574    0.198512   -1.092059
H     -3.596370    0.747153    0.486850
H     -3.691253   -0.932206    1.216073
H      4.748355    0.905259    1.408510
H      4.706841   -0.750319    2.055380
H     -3.238829   -1.874829   -1.084128
H     -3.076242   -0.179601   -1.701843
H      2.561761    0.083297    1.597142
H      2.849009   -1.368402    0.586527
H      5.501920   -1.626835   -0.263822
H     -0.898615   -1.273165   -1.346692
H     -1.288738   -1.477767    0.389043
H      3.001304    1.541940   -0.415602
H      3.458898    0.127368   -1.366504
H      6.477560    1.239346   -0.188668
H      0.660572    1.784182    0.375488
H      0.672909    0.138290    1.064282
H     -1.579426    0.936258    0.685716
H      1.253895   -0.836039   -1.148688
H     -0.981009    2.324555   -1.082500
H      1.481209    0.353629   -2.861223
