41

C     -5.617011    1.845754   -0.077164
C     -5.640582    0.374929   -0.365697
C     -4.434989   -0.349080    0.187872
C      4.934357   -0.213434    0.675222
C     -3.142316    0.200835   -0.410548
C      4.165640   -1.434802    0.420656
C      4.650424    1.003734   -0.093654
C     -2.013731   -0.586006    0.205652
C      2.720924   -1.518468    0.661951
C      5.610589    1.514478   -0.917354
C      0.373145   -1.018956    0.402332
C     -0.659428   -0.156375   -0.289651
C      1.785446   -0.629546   -0.061461
Cl     5.229678    2.963056   -1.812487
O     -0.460165    1.190545   -0.021420
O      1.905039   -0.746038   -1.434795
H     -5.516897    2.443099   -1.026972
H     -4.841571    2.141075    0.660093
H     -6.615341    2.151894    0.347916
H     -5.697115    0.161224   -1.463319
H     -6.531755   -0.088365    0.093714
H     -4.504208   -1.407949   -0.114705
H     -4.367254   -0.197006    1.279733
H      6.058010   -0.428134    0.639272
H      4.787601    0.064522    1.773832
H     -3.183216    0.039902   -1.519728
H     -3.074772    1.276217   -0.232296
H      4.358631   -1.808415   -0.640934
H      4.630810   -2.290165    1.028267
H      3.748282    1.566748   -0.065575
H     -2.037901   -0.357876    1.305746
H     -2.187115   -1.649784    0.023886
H      2.412003   -2.607751    0.523337
H      2.566933   -1.348093    1.785957
H      6.563719    1.036676   -1.006244
H      0.312863   -0.855608    1.494355
H      0.219089   -2.087119    0.159796
H     -0.619960   -0.326663   -1.389296
H      1.931503    0.424504    0.298901
H     -0.069807    1.617722   -0.825203
H      2.250449    0.088720   -1.813181
