43

C      3.366641    1.155706   -1.072694
C     -2.924409    1.546481    0.493728
C      1.280856    0.575746    1.613407
C     -1.609566   -0.454279    1.493094
C      2.020425   -2.149648    0.179980
C      2.876371   -1.118288   -0.421268
C      0.558881   -1.955007   -0.136516
C     -0.640101    2.192695    0.046208
C      0.733415    1.843104   -0.383357
C     -2.192099   -1.089361   -0.825767
C     -2.195702   -2.520499   -0.597885
C      2.473135    0.138473   -0.457091
C     -1.674771    1.174431   -0.274869
C      0.144981   -0.520340   -0.348383
C      1.151581    0.468930    0.128129
C     -1.272187   -0.261795    0.048042
O     -2.199568   -3.267964   -1.583319
H      3.343317    2.092150   -0.493325
H      3.148104    1.256756   -2.139426
H      4.435369    0.797037   -1.004218
H     -2.689518    1.877868    1.539573
H     -3.318492    2.490123    0.006397
H     -3.726133    0.811567    0.464980
H      0.953998   -0.300710    2.168968
H      0.790715    1.508121    2.019040
H      2.365907    0.726727    1.858796
H     -1.356043    0.436710    2.118194
H     -1.197542   -1.365021    1.961521
H     -2.713844   -0.556893    1.568903
H      2.359492   -3.139161   -0.223934
H      2.179249   -2.243345    1.287287
H      3.858257   -1.411810   -0.836618
H      0.011075   -2.398113    0.717857
H      0.340823   -2.600734   -1.011371
H     -0.929154    3.119666   -0.536434
H     -0.746307    2.481484    1.099093
H      1.429537    2.615101   -0.013372
H      0.774441    1.863367   -1.499821
H     -1.973383   -0.886678   -1.915619
H     -3.259767   -0.734005   -0.724971
H     -2.196426   -3.049960    0.344578
H     -1.926284    1.248690   -1.353622
H      0.144725   -0.397321   -1.479929
