33

C     -1.282974    0.890155   -0.206239
C     -1.165958   -1.361012    0.685349
C     -3.752080    1.005193   -0.607210
C      0.826304   -0.885712   -1.563223
C     -2.646739    0.403782    0.230154
C     -0.360278   -0.094914    0.485256
C     -2.536138   -1.074074    0.064477
C      2.907553   -0.426899   -1.059800
C      4.262073   -0.232357   -0.963109
C      2.098541   -0.046484   -0.015454
C      4.009401    0.700095    1.168726
Cl     5.257014   -0.732354   -2.318777
N      4.515923    1.238538    2.238388
N      2.115283   -0.942979   -2.009141
N      4.799731    0.328360    0.148266
N      2.684018    0.505603    1.064939
N      0.811008   -0.334307   -0.335730
O     -3.763641    2.377789   -0.519465
O     -3.483858   -1.736577    0.810025
H     -1.084134    1.919374    0.132576
H     -1.136555    0.749738   -1.296421
H     -1.297226   -1.604478    1.759663
H     -0.720140   -2.226316    0.157153
H     -4.712480    0.635272   -0.158919
H     -3.741043    0.632807   -1.644709
H     -0.066828   -1.222207   -2.089063
H     -2.800804    0.643321    1.283335
H     -0.046018    0.254235    1.480317
H     -2.511929   -1.399262   -0.997795
H      5.532616    1.377197    2.294624
H      5.838915    0.455606    0.173603
H     -4.706001    2.710452   -0.479624
H     -3.843556   -2.507587    0.292491
