21

C      3.176611    0.741503    0.852904
C     -3.360668    0.745537   -0.112250
C      3.109476   -0.556853    0.824230
C     -1.055214    0.843952   -1.012489
C     -1.608299   -0.895791    0.476654
C      0.229686    0.354223   -1.110217
C     -0.338064   -1.393427    0.390056
C     -1.982878    0.232655   -0.226116
C      0.607185   -0.754820   -0.422891
O      2.830929   -0.774784   -1.768787
S      2.267093   -1.453509   -0.500198
H      3.688082    1.234670    1.660277
H      2.728193    1.342080    0.080329
H     -4.015381    0.104076   -0.742489
H     -3.659433    0.674464    0.949329
H     -3.414180    1.796376   -0.427731
H      3.560044   -1.166356    1.600889
H     -1.281639    1.745850   -1.600351
H     -2.362741   -1.385343    1.110548
H      0.963370    0.847447   -1.739378
H     -0.082173   -2.281952    0.957431
