29

C      3.944529    0.386165   -0.429876
C     -3.103132    1.488292   -0.243525
C      2.756420   -0.067688    0.397859
C     -1.316509   -1.719645    0.766620
C      1.534734    0.602406   -0.178532
C     -2.397834   -0.828752    0.280398
C      0.067164   -1.258430    0.510498
C     -2.090643    0.634505    0.491910
C      0.273077    0.217360    0.578781
N     -0.812838    0.890754   -0.147185
H      3.884671   -0.109882   -1.420130
H      3.792944    1.484210   -0.632502
H      4.910049    0.208127    0.074914
H     -4.045180    1.591313    0.323945
H     -2.634835    2.492439   -0.368118
H     -3.244199    1.079522   -1.255172
H      2.672545   -1.162151    0.269784
H      2.941663    0.231152    1.442094
H     -1.513714   -1.956954    1.848440
H     -1.442587   -2.716017    0.248593
H      1.427133    0.344590   -1.231587
H      1.709334    1.698107   -0.112773
H     -2.647659   -1.001549   -0.774725
H     -3.330334   -1.038197    0.879179
H      0.450926   -1.667665   -0.456425
H      0.742589   -1.718408    1.290610
H     -2.017198    0.902133    1.555987
H      0.324719    0.578336    1.628836
H     -0.835834    0.415927   -1.093542
