39

C     -3.281493   -0.753411    0.445487
C      2.788465   -1.620372    0.249706
C     -0.444491    2.560051   -0.450475
C     -1.647118    1.559721    1.390983
C      2.533043    0.714006   -0.404962
C      1.667047    1.175414    0.715867
C     -1.454148   -2.142589   -0.293439
C     -0.000686   -1.987267    0.074216
C     -0.256427   -0.209715   -1.559483
C     -2.130995   -0.823540   -0.187899
C      2.034421   -0.707655   -0.663621
C     -1.466400    0.362623   -0.811922
C      0.379018    0.430980    0.606024
C     -0.785622    1.245663    0.189924
C      0.576307   -0.682791   -0.391172
H     -3.701289   -1.651352    0.869742
H     -3.806088    0.164849    0.547967
H      3.406322   -2.313162   -0.343618
H      2.144146   -2.189293    0.948797
H      3.512357   -1.063994    0.912567
H     -0.247654    3.345174    0.284339
H      0.359806    2.524479   -1.176410
H     -1.372616    2.881223   -1.009367
H     -2.562846    2.130180    1.128472
H     -1.948165    0.691696    1.968165
H     -1.062413    2.248895    2.057459
H      3.590487    0.690411   -0.081740
H      2.477430    1.333070   -1.309663
H      2.158494    0.878143    1.670013
H      1.545436    2.274470    0.765835
H     -1.917060   -2.878231    0.426783
H     -1.591796   -2.604102   -1.292972
H      0.547241   -2.830736   -0.425827
H      0.064252   -2.112984    1.182921
H     -0.543304   -1.050621   -2.213799
H      0.240603    0.540520   -2.175466
H      2.220658   -0.953791   -1.726019
H     -2.143962    0.901148   -1.497609
H      0.119038   -0.077109    1.580195
