39

C     -2.947256    1.872429    0.310393
C      3.182604    0.952826    0.186680
C     -2.176247   -1.108831    1.119499
C     -1.335800   -2.169444   -0.901493
C      2.405801   -1.352328    0.215756
C      1.026277   -1.963596    0.267108
C     -0.599344    2.398869    0.209212
C      0.678049    1.694995    0.492882
C     -0.065679    0.465267   -1.471299
C     -1.742409    1.504914   -0.106509
C      2.194673   -0.012433   -0.482375
C     -1.465353    0.261619   -0.866667
C      0.154132   -0.753358    0.520334
C     -1.244389   -0.941376   -0.023105
C      0.776443    0.391282   -0.220259
H     -3.131476    2.785237    0.864445
H     -3.843035    1.270887    0.119643
H      3.405291    1.815682   -0.441759
H      2.858349    1.210182    1.214369
H      4.143880    0.388322    0.306736
H     -3.078017   -1.723027    0.827503
H     -1.702254   -1.704845    1.953702
H     -2.552678   -0.200122    1.578638
H     -0.820239   -2.070550   -1.856872
H     -2.429457   -2.286943   -1.147145
H     -1.047481   -3.089233   -0.361380
H      2.823410   -1.204754    1.234593
H      3.070635   -1.988179   -0.404656
H      0.916648   -2.714626    1.073616
H      0.844117   -2.420410   -0.729911
H     -0.481196    3.155599   -0.619399
H     -0.847271    3.026209    1.109856
H      1.512449    2.348655    0.102215
H      0.884799    1.578813    1.576768
H      0.199877   -0.325416   -2.170867
H      0.006423    1.428724   -1.992874
H      2.459053   -0.081334   -1.535930
H     -2.175779    0.108847   -1.704228
H      0.142449   -0.548554    1.594774
