27

C     -3.513966   -0.386632    0.215001
C      2.283765    2.200195   -0.448242
C     -2.621936   -1.514528   -0.245062
C     -1.331558   -1.002033   -0.851392
C     -0.540451   -0.182074    0.147518
C      2.622629    0.194501    0.954491
C      1.585449    1.118272    0.384100
C      0.721690    0.294058   -0.513905
C      2.275876   -1.099180    0.299336
O      2.672620   -2.215429    0.768498
O      1.512922   -0.839535   -0.806693
H     -3.221479    0.563682   -0.281786
H     -3.449800   -0.227224    1.305617
H     -4.562851   -0.617757   -0.030468
H      3.290321    1.865960   -0.736072
H      2.280959    3.144657    0.132766
H      1.694135    2.343687   -1.377344
H     -2.432210   -2.186669    0.599373
H     -3.130801   -2.098906   -1.041279
H     -1.588613   -0.417614   -1.753720
H     -0.766056   -1.897058   -1.184788
H     -1.190916    0.639813    0.504079
H     -0.271013   -0.812166    1.003390
H      3.637664    0.492463    0.614643
H      2.547896    0.144534    2.051815
H      0.984006    1.618480    1.194974
H      0.511719    0.876502   -1.444986
