39

C      4.285369   -0.324541    1.584360
C      3.997643    0.526624   -0.794465
C     -5.381268    0.169048    0.902126
C      0.429590    1.267045   -1.159080
C      1.854450   -1.285770   -1.161889
C      2.589050   -1.222607    0.124215
C      0.360207   -1.175977   -0.967126
C     -3.647264    0.199800   -0.791212
C     -3.157558   -0.281393    1.697650
C     -2.353536    0.301087   -1.059464
C     -1.894934   -0.826534    1.016356
C      3.564916   -0.373379    0.286494
C     -4.102545    0.037979    0.584620
C      0.015367    0.104233   -0.321383
C     -1.425867    0.243423    0.071434
H      5.375386   -0.394359    1.389139
H      3.956202   -1.120393    2.285933
H      4.130297    0.651729    2.103853
H      4.954867    1.049144   -0.474983
H      4.185296   -0.029746   -1.742785
H      3.278641    1.341317   -0.939913
H     -5.750030    0.056145    1.906513
H     -6.136557    0.401866    0.148317
H     -0.497942    1.830583   -1.469630
H      0.964242    1.005760   -2.086737
H      1.029650    2.016655   -0.582466
H      2.240244   -0.505317   -1.844422
H      2.134043   -2.266167   -1.617308
H      2.317596   -1.890905    0.952042
H     -0.044603   -2.057056   -0.417336
H     -0.073296   -1.219366   -2.013433
H     -4.409109    0.231179   -1.557681
H     -3.567855   -0.984733    2.421110
H     -2.839196    0.695317    2.145879
H     -2.072504    0.419252   -2.094350
H     -1.129146   -1.099195    1.756770
H     -2.248235   -1.715231    0.434307
H      0.585057    0.134533    0.661999
H     -1.516669    1.219815    0.622546
