120

C     10.732416    1.636732    2.658757
C     11.289198   -0.426568    1.431921
C     -6.077512   -4.373077    0.105019
C      6.051541    0.347322    3.615520
C      7.427339   -0.089566    3.485813
C      4.892378   -0.538529    3.792791
C      7.851275   -0.891569    2.308796
C      4.637863   -1.547528    2.741470
C      7.621545   -0.246122    0.993593
C      3.307828   -2.272478    3.023504
C      8.249218    1.020059    0.633146
C      2.230650   -1.274027    2.976434
C      9.664198    1.217311    0.398083
C      1.329576   -1.435754    2.005167
C     -7.629621    7.031280   -3.686149
C     -7.543456    5.688017   -3.411398
C     -3.615440    1.938528   -2.589894
C      0.439418   -3.762966   -3.317740
C     10.751904    0.960480    1.335452
C     -4.595619   -4.557663    0.349678
C     -4.737601    1.532424   -1.712101
C     -2.280273    1.528907   -2.029644
C     -0.824115   -4.350291   -2.783067
C      0.193091   -0.477318    1.864996
C     -7.579541    7.887694   -2.563501
C     -2.383258   -3.961549   -0.320738
C     -1.725704   -0.138557    0.273164
C     -2.020755    2.130461   -0.716658
C     -0.556963   -5.070861   -1.487109
C     -1.912304   -5.304950   -0.816195
C     -1.975929    1.293300    0.484900
C     -7.075479    1.665325   -1.125429
C     -7.310732    3.143619   -0.722169
C     -6.101884    1.921866   -2.292380
C     -7.331338    3.730867   -2.103516
C     -1.792673   -2.935898   -1.285831
C     -1.758330   -0.597644   -1.169619
C     -7.374262    5.988568   -1.135004
N     -3.797157   -3.931055   -0.382026
N     -0.571352   -0.646640    0.912962
N     -7.457679    7.321958   -1.383627
N     -7.418545    5.152411   -2.185016
O      0.993564   -2.780508   -2.504896
O     -4.204694   -5.396820    1.356107
O     -4.831152    0.177538   -1.443757
O      0.094756    0.518365    2.818775
O     -7.656818    9.277344   -2.718620
O     -2.813803    3.278150   -0.438097
O     -0.063663   -6.353842   -1.800454
O     -1.748662   -6.261699    0.145707
O     -3.116313    1.457255    1.302842
O     -8.251175    1.096430   -1.542288
O     -8.507557    3.244166   -0.048001
O     -7.262355    5.538775    0.015965
O     -2.145364    0.198260   -2.137323
O     -1.846403   -3.429755   -2.610828
O     -6.162555    3.233258   -2.634264
O     -2.520109   -1.772615   -1.259909
H     11.740125    2.020249    2.901763
H     10.496677    0.936354    3.500067
H     10.063402    2.527190    2.683100
H     12.325733   -0.479642    1.037043
H     11.290892   -0.789752    2.468094
H     10.639406   -1.105260    0.807373
H     -6.477322   -3.872930    1.005763
H     -6.530485   -5.381170    0.050093
H     -6.236390   -3.759545   -0.810237
H      6.015826    1.070055    4.518907
H      5.785799    1.078580    2.760703
H      7.671430   -0.739640    4.389006
H      8.105554    0.793470    3.657103
H      5.000289   -1.063844    4.814452
H      3.940582    0.072706    3.958887
H      8.942956   -1.133631    2.457995
H      7.351829   -1.868572    2.300353
H      4.595953   -1.117767    1.731314
H      5.395745   -2.379498    2.754567
H      7.895482   -1.040514    0.222272
H      6.510042   -0.139077    0.814885
H      3.362002   -2.727858    4.055209
H      3.138120   -3.050423    2.271481
H      7.702619    1.347311   -0.347199
H      7.814930    1.830939    1.330100
H      2.105432   -0.437547    3.653816
H      9.818704    2.251196   -0.119881
H      9.917936    0.548009   -0.528195
H      1.385927   -2.233986    1.315358
H     -7.732259    7.471937   -4.653485
H     -7.585285    5.002324   -4.285666
H     -3.771448    1.525372   -3.619833
H     -3.679976    3.066108   -2.686296
H      0.285825   -3.348809   -4.346873
H      1.206406   -4.567020   -3.438509
H     11.668435    1.542850    0.805672
H     -4.691464    2.095220   -0.734972
H     -1.533578    1.972913   -2.800228
H     -1.199728   -5.065636   -3.569189
H     -2.046793   -3.809235    0.713827
H     -2.606730   -0.688585    0.748184
H     -0.970604    2.624890   -0.799006
H      0.155636   -4.574909   -0.829761
H     -2.573911   -5.645930   -1.658179
H     -1.094453    1.699975    1.125298
H     -6.591128    1.168465   -0.275397
H     -6.423538    3.501013   -0.180324
H     -6.319447    1.201515   -3.078148
H     -8.233469    3.242233   -2.605800
H     -0.755492   -2.724147   -1.027307
H     -0.683421   -0.973063   -1.332258
H      1.918777   -3.038721   -2.291328
H     -3.431226   -5.188996    1.988843
H     -4.595355   -0.303459   -2.299775
H     -0.843323    0.704720    3.200967
H     -7.483168    9.854866   -1.870646
H     -2.464033    4.074672   -0.888207
H      0.908108   -6.444736   -1.567525
H     -2.131346   -7.108490   -0.129001
H     -2.959877    2.276680    1.857999
H     -8.086781    0.527297   -2.355999
H     -8.604163    2.442466    0.555417
