23

C     -2.368892    1.433810   -0.225997
C     -1.429685   -0.894298   -0.971047
C      0.078295   -1.194555   -1.109627
C      1.911718   -0.911598    0.605231
C      2.690178    0.089887   -0.110396
C      0.149683    1.434983    1.482653
C     -1.334327    0.359692   -0.152378
C      0.455540   -0.931374    0.326141
C     -0.237218    0.346781    0.584913
O      2.248253    0.905101   -0.898908
O      1.187160    1.428578    2.183189
H     -3.309951    1.127626    0.306678
H     -2.630309    1.544948   -1.298983
H     -2.019889    2.389397    0.173139
H     -1.856280   -1.712338   -0.388887
H     -1.889562   -0.731537   -1.945042
H      0.249658   -2.228607   -1.428060
H      0.549090   -0.433930   -1.734314
H      2.328554   -1.917412    0.350450
H      2.038346   -0.820679    1.707760
H      3.760741    0.125717    0.063657
H     -0.488365    2.291450    1.549351
H     -0.082737   -1.701641    0.930479
