68

C     -5.477193   -1.305409    0.251611
C     -5.178225   -1.496119   -1.155107
C      8.283788    1.832690    0.691577
C      8.439421    0.476653    0.707133
C      7.407842    2.395372   -0.206318
C     -4.566013   -1.265423    1.175586
C     -5.505623   -0.425275   -2.129633
C      7.737565   -0.325573   -0.155917
C      6.708957    1.595192   -1.065851
C     -3.131956   -1.403125    0.940548
C     -6.920480    0.034583   -2.214361
C     -2.433317    2.290200    1.462182
C     -0.970777    2.410784    1.026647
C      2.813811   -1.949823   -0.915860
C      4.167050   -0.546132    0.407579
C      1.867634   -2.003244    0.072996
C      3.205892   -0.590657    1.432059
C     -2.076001    1.096411   -0.512607
C      3.993907   -1.214568   -0.770059
C     -2.982278    1.080572    0.731110
C     -0.759179    1.130445    0.297595
C      6.835482    0.201595   -1.086521
C      2.064728   -1.323416    1.245954
C     -2.479809   -0.124834    1.439453
C     -7.399212    0.754026   -1.018787
C     -0.985998   -0.111080    1.132455
C      4.942157   -1.210324   -1.867740
N      4.740665   -1.875277   -3.035820
N     -0.247683   -0.056936    2.352665
N      5.775017   -1.667915   -3.801685
N      6.659965   -0.896393   -3.203970
N      6.130379   -0.614660   -1.993591
O     -6.697517    1.211957   -0.093670
O     -8.790391    0.960616   -0.880020
O      0.202388   -2.688111    2.514532
O      1.540305   -1.202579    3.874811
S      0.868471   -1.365892    2.540066
H     -6.565925   -1.237534    0.523168
H     -4.181293   -1.971333   -1.373123
H     -5.877312   -2.373157   -1.471839
H      8.834315    2.485485    1.371326
H      9.133025    0.035274    1.418844
H      7.259128    3.476777   -0.245770
H     -4.893034   -1.117154    2.214341
H     -4.897388    0.515877   -1.939875
H     -5.152739   -0.748455   -3.163548
H      7.860165   -1.412363   -0.145896
H      6.008888    2.009666   -1.787270
H     -2.781028   -2.239806    1.597616
H     -2.827559   -1.669518   -0.060613
H     -7.623512   -0.822939   -2.444073
H     -7.004080    0.775754   -3.070952
H     -2.996487    3.200836    1.261667
H     -2.407269    2.071099    2.550335
H     -0.985613    3.219970    0.241912
H     -0.304169    2.638499    1.847053
H      2.668043   -2.490788   -1.862160
H      5.056076    0.038906    0.580865
H      0.977878   -2.587748   -0.094861
H      3.397316   -0.042728    2.339786
H     -2.196561    2.013239   -1.093239
H     -2.151953    0.171845   -1.078387
H     -4.026163    1.122226    0.499152
H      0.108788    1.084921   -0.346569
H     -2.682737   -0.060272    2.513100
H     -0.691069   -0.998597    0.540018
H      0.324943    0.810623    2.451908
H     -9.166447    1.160190    0.038043
