68

C     -2.372119    0.087415    1.512147
C     -2.121766    1.541782    1.626689
C      4.602940   -3.446537    3.264768
C      5.696598   -2.805808    2.688888
C      3.461844   -2.714675    3.529952
C     -1.923456   -0.586050    0.471457
C     -3.428290    2.309865    1.703373
C      5.625639   -1.473964    2.396895
C      3.398285   -1.377410    3.233791
C     -1.155059   -0.072332   -0.676277
C     -4.199791    1.866288    2.891618
C     -4.196958   -0.667935   -2.777068
C     -3.366887   -0.769459   -4.069966
C      2.833679    1.625222   -0.828011
C      3.217337   -0.612750   -0.220750
C      2.231631    1.210157   -1.978343
C      2.597517   -1.020310   -1.404886
C     -3.094898    1.334894   -3.078659
C      3.354432    0.711303    0.103875
C     -3.296898    0.271449   -1.981602
C     -2.399002    0.360317   -4.059500
C      4.485083   -0.763344    2.666776
C      2.087682   -0.127429   -2.316119
C     -1.954069   -0.349725   -1.918316
C     -3.500311    2.122669    4.145740
C     -1.221128    0.014741   -3.206642
C      3.998213    1.221253    1.305003
N      4.210841    2.561050    1.522679
N     -0.326829   -0.956304   -3.641859
N      4.796898    2.710024    2.695656
N      4.964077    1.521113    3.230357
N      4.468643    0.621226    2.365365
O     -4.008467    1.603995    5.197946
O     -2.353114    2.871690    4.276586
O      2.009027   -1.873728   -4.263086
O      1.639244    0.430242   -4.831242
S      1.297890   -0.604918   -3.804342
H     -2.942728   -0.442442    2.313801
H     -1.505940    1.663334    2.566203
H     -1.576165    1.917247    0.762247
H      4.637082   -4.486498    3.500610
H      6.604334   -3.378548    2.475901
H      2.582947   -3.189927    3.982893
H     -2.148349   -1.674109    0.450133
H     -3.988873    2.099908    0.780222
H     -3.135604    3.390159    1.752995
H      6.475068   -0.988369    1.952546
H      2.528582   -0.754715    3.419987
H     -0.753715    0.922590   -0.608408
H     -0.259299   -0.781737   -0.757868
H     -5.179690    2.405282    2.906179
H     -4.468505    0.778236    2.847117
H     -5.138109   -0.174826   -3.078866
H     -4.317814   -1.631858   -2.279045
H     -2.899197   -1.781112   -4.021618
H     -4.024632   -0.725172   -4.963155
H      2.911166    2.672356   -0.631752
H      3.598942   -1.354656    0.444175
H      1.823619    1.925167   -2.706983
H      2.504387   -2.079650   -1.634205
H     -2.383833    2.103821   -2.758994
H     -4.045574    1.696096   -3.468347
H     -3.728573    0.645615   -1.083746
H     -2.220267    0.889694   -4.962515
H     -2.081361   -1.473007   -1.977777
H     -0.708564    0.995875   -2.988628
H     -0.453708   -1.852104   -3.120862
H     -1.764083    2.787726    5.114868
