21

C      2.609404    0.940955    0.004284
C      2.772049   -0.421741   -0.092720
C      1.334837    1.453415   -0.003624
C      1.628806   -1.224730   -0.195208
C     -1.166647    1.300327   -0.106736
C     -2.158426    0.368792    0.523468
C      0.208077    0.670005   -0.104026
C      0.360334   -0.693696   -0.201484
C     -2.092954   -1.025763   -0.005994
C     -0.814671   -1.572624   -0.310842
O     -1.488377   -1.933883    0.885234
H      3.485075    1.561344    0.083185
H      3.746318   -0.890025   -0.092460
H      1.181837    2.539878    0.072855
H      1.814960   -2.304539   -0.269974
H     -1.413878    1.597569   -1.135413
H     -1.072000    2.206941    0.544547
H     -3.173764    0.809774    0.343030
H     -2.019523    0.423178    1.637223
H     -2.989105   -1.375423   -0.565405
H     -0.752353   -2.429754   -1.009943
