23

C      2.653336    0.801874    0.028807
C      1.340375   -1.445835    0.078087
C     -0.084552   -1.809228   -0.071805
C     -1.976661   -0.347994   -0.645258
C     -2.776463    0.814320   -0.231705
C     -0.082016    1.979758    0.399834
C      1.361556    0.022167    0.141812
C     -0.847663   -0.567193    0.367058
C      0.155187    0.516238    0.304367
O     -3.246913    0.790639    0.900430
O      0.846945    2.819911    0.326674
H      2.748391    1.283664   -0.956720
H      3.523968    0.112057    0.202871
H      2.702750    1.560450    0.831734
H      1.906984   -1.779967   -0.848474
H      1.811653   -1.874936    0.983110
H     -0.336348   -2.066243   -1.128752
H     -0.316292   -2.679602    0.560859
H     -2.601308   -1.272569   -0.643972
H     -1.518707   -0.198422   -1.641747
H     -2.959699    1.676480   -0.886765
H     -1.083836    2.323175    0.536333
H     -1.220686   -0.658744    1.393224
