54

C     -4.229194   -2.561674   -2.292471
C     -3.918661    3.654253    1.249662
C     -6.843927    0.037500    0.787790
C      4.501783   -1.180503    1.383953
C      5.881902   -1.092584    1.317807
C      2.311587   -1.253429    0.198132
C     -0.543646    0.566833   -0.803433
C      4.406100   -1.075373   -1.035546
C     -2.777146   -0.472150   -1.213406
C     -2.679557    1.568064   -0.050459
C      1.948643    0.949848    1.379832
C     -0.151285    0.480628    1.677336
C      7.929080   -0.433055   -1.555095
C      3.794457   -1.169612    0.202261
C     -2.015181    0.547791   -0.691099
C      1.642695    0.082076    0.206486
C      0.145981   -0.121059    0.347671
C      6.500063   -0.998823    0.101874
C      5.798600   -0.988194   -1.071978
C     -4.158547   -0.478380   -1.102525
C     -4.068879    1.574055    0.068111
C     -4.800578    0.542059   -0.463603
O     -4.894493   -1.509856   -1.633606
O     -4.709495    2.613435    0.717786
O     -6.188147    0.597189   -0.316966
O      0.739149    1.558806    1.743360
O      7.863684   -0.900740   -0.204597
O      6.712164   -0.884500   -2.114737
H     -3.786914   -2.192018   -3.257671
H     -4.964527   -3.339640   -2.531008
H     -3.386046   -2.967732   -1.698220
H     -3.337543    4.077690    0.402923
H     -3.184426    3.242698    1.996576
H     -4.529201    4.417914    1.766517
H     -7.185124    0.881166    1.438848
H     -6.148260   -0.608825    1.357479
H     -7.714760   -0.605135    0.471937
H      3.999986   -1.260270    2.346702
H      6.435503   -1.101676    2.258995
H      1.989749   -1.833866   -0.694422
H      1.940980   -1.855294    1.072310
H     -0.236863   -0.007233   -1.726817
H     -0.124462    1.582001   -0.955693
H      3.864618   -1.065828   -1.970197
H     -2.240034   -1.273786   -1.718045
H     -2.129513    2.393967    0.377190
H      2.317732    0.403936    2.269532
H      2.643194    1.799436    1.115553
H     -1.190203    0.756839    1.853402
H      0.228710   -0.250053    2.451084
H      8.744420   -0.943942   -2.110432
H      8.031377    0.650576   -1.592494
H      1.863377    0.655240   -0.730094
H     -0.098922   -1.208772    0.383217
