63

C      3.451589   -3.060349    0.287269
C      1.298603   -4.341804   -0.465815
C      4.661368    3.321029   -0.201131
C     -4.813490   -2.940850    0.334122
C      0.176821    4.863263    0.223999
C     -4.510761    1.756972   -0.025098
C     -1.560286    1.555277    2.301876
C     -0.834993    2.065053   -2.197465
C      2.540559   -1.036364   -0.869362
C      2.805937    1.212726   -0.339526
C     -2.184352   -2.076703    0.440700
C      0.001546   -2.729840    0.942273
C      2.257594   -2.130329    0.169854
C      1.890491    0.215975   -0.397972
C     -0.898870   -1.632802    0.488941
C      2.424081    2.459806    0.161319
C     -3.170973   -1.232083   -0.034986
C      0.580901    0.487152    0.051557
C     -0.637814   -0.318532    0.048524
C      1.121227    2.682820    0.600549
C     -2.874339    0.059825   -0.468149
C      0.176940    1.688695    0.553592
C     -1.589238    0.526449   -0.431234
C      1.012716   -2.873564   -0.209890
O      0.468738   -2.374599   -1.391691
O      3.318503    3.500928    0.235842
O     -4.469070   -1.651331   -0.090375
O      0.701715    3.907277    1.106296
O     -3.853615    0.917326   -0.948738
O     -1.119095    1.810812    0.989257
O     -1.201607    1.769851   -0.864027
H      3.131008   -3.984405    0.800310
H      3.880981   -3.257315   -0.727770
H      4.208981   -2.577983    0.925604
H      2.219518   -4.396761   -1.065537
H      0.476124   -4.770832   -1.078716
H      1.352559   -4.928061    0.454201
H      4.687476    2.823291   -1.199812
H      5.208015    4.271584   -0.253680
H      5.192708    2.668089    0.526513
H     -4.174442   -3.715431   -0.157917
H     -4.606984   -3.033009    1.436024
H     -5.873072   -3.167152    0.101013
H      0.108264    4.461410   -0.810306
H      0.873839    5.742231    0.145728
H     -0.795971    5.269990    0.585568
H     -4.131990    2.811405   -0.132541
H     -4.332734    1.471641    1.020391
H     -5.593281    1.805231   -0.286562
H     -0.750041    1.650218    3.027408
H     -2.322990    2.325634    2.548250
H     -2.025698    0.571978    2.435534
H     -1.298223    1.332886   -2.888735
H     -1.041145    3.109426   -2.426133
H      0.254106    1.892847   -2.284135
H      2.257000   -1.332521   -1.876545
H      3.636640   -0.872875   -0.845645
H      3.815853    1.039504   -0.676857
H     -2.429988   -3.080021    0.771036
H      0.496215   -2.432867    1.878108
H     -0.563792   -3.643456    1.106661
H      2.184653   -1.602336    1.142306
H      0.785587   -2.854428   -2.194271
