39

C     -2.672700   -2.075000    0.947558
C     -0.530477    2.727286    0.202885
C      3.388449    0.784898    0.745299
C      2.591332   -0.198973   -1.442563
C     -2.304876    1.532140   -1.051426
C     -0.366957   -2.543579    0.895175
C     -2.733963    0.356088   -0.211355
C      0.880568   -2.088344    0.199822
C     -1.467303   -1.559533    0.757719
C     -0.819625    1.697526   -0.861487
C     -1.481222   -0.115736    0.450205
C      1.463248   -0.856675    0.811636
C     -0.335296    0.312386   -0.433617
C      0.882357    0.415472    0.425036
C      2.234153    0.123260   -0.012281
H     -3.567678   -1.464331    0.876287
H     -2.799129   -3.140470    1.183535
H     -1.143367    3.630992   -0.062729
H      0.518267    3.013088    0.114981
H     -0.854839    2.415225    1.200972
H      4.299276    0.152971    0.725375
H      3.044536    0.932289    1.799786
H      3.619625    1.777743    0.336782
H      1.822137   -0.736003   -1.989773
H      2.850656    0.744713   -1.979627
H      3.528583   -0.794558   -1.420199
H     -2.561364    1.318043   -2.103895
H     -2.883032    2.415435   -0.703753
H     -0.710980   -3.473288    0.365337
H     -0.171806   -2.836411    1.945530
H     -3.512002    0.589453    0.517864
H     -3.108311   -0.478622   -0.851187
H      0.706820   -2.030810   -0.875603
H      1.641498   -2.911582    0.344707
H     -0.385602    2.025143   -1.804049
H     -1.367950    0.438264    1.410462
H      1.748988   -1.010220    1.893560
H     -0.218908   -0.273103   -1.338813
H      0.776893    1.184822    1.245390
