33

C     -3.697978   -0.877831   -0.119246
C     -2.309525    0.914062    0.793408
C      2.008209   -1.344304    1.914354
C      3.914060   -0.164870    1.103094
C      0.660146   -1.600541    1.789769
C      4.401116    0.734149    0.173698
C      2.563750   -0.455623    1.019488
C     -0.115992   -0.987486    0.799018
C      3.596041    1.303005   -0.772950
C      0.450996   -0.102023   -0.088243
C     -0.347379    0.574769   -1.162129
C      1.808763    0.151018    0.043318
C     -1.605887   -0.205264   -1.337255
C     -2.289875   -0.375751    0.008855
O      4.087255    2.121852   -1.604133
O     -0.559042    1.889579   -0.776379
O     -2.460551    0.321013   -2.289253
O      2.320387    1.003287   -0.821683
O     -1.487083   -1.292914    0.726315
H     -3.820443   -1.695312   -0.848279
H     -4.348241    0.003267   -0.350174
H     -4.015380   -1.245409    0.880181
H     -1.331007    1.100049    1.295546
H     -3.043219    0.760572    1.633467
H     -2.672929    1.768180    0.215931
H      2.609295   -1.820426    2.683275
H      4.568740   -0.608838    1.850397
H      0.176938   -2.294192    2.472273
H      5.449538    0.977442    0.217406
H      0.261133    0.578911   -2.095096
H     -1.328153   -1.226594   -1.671732
H     -0.596802    2.467685   -1.595982
H     -2.846883   -0.371460   -2.897494
