32

C     -3.626335    1.446817   -0.498983
C     -3.648534    0.075335   -0.480210
C     -2.655795    2.107599    0.193602
C     -2.682581   -0.596299    0.243022
C     -1.698825    1.443820    0.910070
C      3.544903    0.387297    0.194440
C     -1.708191    0.071785    0.938232
C      2.088403    0.408808   -0.230380
C      3.679387   -1.022096    0.647975
C     -0.693386   -0.642172    1.698236
C      0.505542   -1.264165   -0.417443
C      1.942195   -0.959749   -0.864469
C      0.634344   -0.752966    1.010359
O      4.411799   -1.378497    1.606592
O     -0.459859   -0.119469    2.970323
O     -0.319620   -0.467071   -1.181957
O      1.285884    0.446449    0.876545
O      2.863703   -1.767091   -0.183834
H     -4.400334    1.944933   -1.077467
H     -4.397837   -0.479559   -1.013786
H     -2.677826    3.206523    0.149447
H     -2.737194   -1.689195    0.230987
H     -0.964337    2.046179    1.431609
H      4.214403    0.530272   -0.655421
H      3.748365    1.116457    1.001893
H      1.884551    1.198075   -0.974613
H     -1.060626   -1.693193    1.875170
H      0.282250   -2.328059   -0.469835
H      2.039290   -0.957251   -1.947809
H      1.287374   -1.479122    1.535148
H     -0.785460    0.810118    3.070339
H      0.104347    0.355489   -1.506079
