58

C      6.548434   -0.771682   -0.622107
C     -1.764358    4.535313    1.005376
C      5.124444   -0.279294   -0.911464
C      4.851338    0.840070    0.050451
C      3.490891    1.447049   -0.092636
C      2.416077    0.396725    0.144343
C     -2.976164   -3.479401    0.683646
C     -1.768549   -3.023811    1.445810
C      1.028668    1.043592   -0.006614
C     -3.032275   -2.779748   -0.621317
C     -3.402694    1.086160   -0.274986
C     -1.991977   -1.556548    1.783840
C     -3.554833   -0.011419    0.744051
C      0.234269   -1.112781   -0.778657
C     -1.628285    2.724299   -0.304744
C      0.022074   -0.039645    0.238023
C     -1.909845    1.251146   -0.499135
C     -2.299779   -1.488108   -0.712978
C     -0.979582   -1.663733   -1.381221
C     -2.207140   -0.719157    0.563060
N     -1.314662    0.389724    0.436426
O     -0.937295   -2.270096   -2.428882
O     -2.080696    3.169179    0.947720
H      6.630575   -0.908392    0.460015
H      6.772016   -1.689978   -1.197568
H      7.220551    0.067441   -0.927191
H     -2.303286    5.024065    0.157141
H     -2.090908    5.001348    1.942010
H     -0.678068    4.683530    0.812287
H      4.437907   -1.140718   -0.790068
H      5.120618    0.090510   -1.969672
H      4.921813    0.408448    1.077878
H      5.625991    1.612167   -0.107255
H      3.345860    1.805687   -1.130852
H      3.398487    2.268921    0.616350
H      2.511923    0.108448    1.225416
H      2.539631   -0.467724   -0.504704
H     -2.885444   -4.569944    0.532733
H     -3.895227   -3.324296    1.283293
H     -1.789797   -3.569711    2.434163
H     -0.843621   -3.211286    0.905586
H      1.020238    1.858727    0.733763
H      1.008661    1.379991   -1.065319
H     -4.121922   -2.676435   -0.901822
H     -2.615350   -3.459484   -1.407189
H     -3.953308    0.884091   -1.215304
H     -3.869868    1.998540    0.188791
H     -1.135439   -1.246843    2.411358
H     -2.877797   -1.550640    2.476767
H     -4.385761   -0.689045    0.505039
H     -3.561897    0.360696    1.786592
H      0.867880   -0.734789   -1.635508
H      0.831889   -1.988175   -0.386482
H     -0.620538    3.045398   -0.548229
H     -2.303740    3.251969   -1.044932
H      0.341605   -0.499053    1.226813
H     -1.640393    1.028979   -1.565738
H     -2.891342   -0.840280   -1.430161
