36

C      3.042966   -1.175819   -0.011393
C     -1.949691    2.183655    1.875982
C     -0.764556    1.578065    1.435706
C     -3.206888    1.731080    1.542527
C      1.464194    0.654067    0.016004
C     -1.202312   -1.806328   -1.036767
C     -3.754004   -1.127354   -0.546242
C      3.845410    1.296598   -0.096044
C      2.727610    0.270358   -0.028810
C     -2.366199   -1.062972   -0.497000
C     -0.852231    0.468164    0.624003
C      0.345461   -0.274706    0.082975
C     -0.095648   -0.795286   -1.268768
C     -3.272930    0.619168    0.729585
C     -2.111166    0.027704    0.299549
N      0.940094   -1.369299   -2.057799
N     -4.272010   -0.101261    0.202007
O      4.630776    1.081347    1.044727
H      2.272380   -1.834968    0.359666
H      3.506691   -1.505915   -0.976236
H      3.900232   -1.276996    0.722672
H     -1.841702    3.047946    2.508062
H      0.192609    1.945673    1.708260
H     -4.102655    2.219191    1.897476
H      1.262959    1.745135   -0.002141
H     -0.860287   -2.488541   -0.214686
H     -1.442426   -2.392751   -1.928920
H     -4.285393   -1.875506   -1.093294
H      4.439099    1.172978   -1.009258
H      3.415258    2.312585    0.018870
H      0.452690   -1.140924    0.750184
H     -0.596325    0.077972   -1.774311
H      1.160067   -0.691076   -2.837888
H      0.604866   -2.253130   -2.501468
H     -5.291336    0.044477    0.306745
H      4.064399    0.696666    1.756023
