36

C      4.566485    1.895877    1.241777
C     -3.578836    1.710858    0.904824
C     -4.811107   -0.520972    0.718069
C      0.392945   -1.491647   -1.859055
C      4.172660    0.845354    0.253770
C     -1.350453    0.530446   -0.515078
C     -2.563980   -0.234223   -0.215599
C     -0.097015   -0.049709    0.084899
C      1.513291   -1.865696    0.279761
C     -3.587960    0.293979    0.432369
C      0.209097   -1.435998   -0.369150
C      2.635243   -0.970795   -0.111667
O      3.208756   -1.118751   -1.238205
O      3.102654    0.043348    0.705614
H      5.567207    2.291889    0.982992
H      3.847166    2.739852    1.235351
H      4.606678    1.523094    2.283524
H     -2.930028    1.857025    1.780057
H     -3.293382    2.359747    0.055475
H     -4.607564    2.038578    1.193349
H     -5.681592   -0.169823    0.128952
H     -4.610782   -1.598098    0.494289
H     -5.014702   -0.410269    1.803750
H      1.105009   -0.675158   -2.142498
H      0.811048   -2.436393   -2.218744
H     -0.608705   -1.313828   -2.338305
H      3.911688    1.368298   -0.704128
H      5.039248    0.197041    0.007216
H     -1.167826    0.660355   -1.623170
H     -1.423859    1.581474   -0.136600
H     -2.638044   -1.265747   -0.529999
H      0.746540    0.601297   -0.223584
H     -0.172721   -0.052053    1.191975
H      1.467481   -1.861729    1.382055
H      1.802601   -2.891737   -0.039949
H     -0.567241   -2.175885   -0.082043
