12

C     -0.562977    0.080178   -0.407098
C      1.693756   -0.391464   -0.371774
C     -1.356655    0.332235    0.879413
Cl    -1.654121   -0.495807   -1.687437
F      2.497700   -0.419522    0.756180
F      2.330892   -1.118236   -1.350130
F     -0.540107    0.777382    1.884749
F     -2.344932    1.258514    0.612111
F     -1.955511   -0.835977    1.309975
O      0.419928   -0.875302   -0.130031
H     -0.127347    1.030081   -0.763049
H      1.599374    0.657918   -0.732908
