31

C     -4.252169   -0.277380    0.211683
C      4.305743   -1.737936   -0.792432
C      1.751058    3.071651    0.208430
C      0.151702   -1.664834    0.272307
C      1.494101   -1.715445   -0.073739
C     -1.923303   -0.426708    0.891500
C      0.264725    0.682761    0.414017
C     -2.818500   -0.311389   -0.318971
C     -0.484526   -0.470783    0.521314
C      2.243329   -0.564358   -0.181202
C      1.617983    0.640816    0.065832
N     -2.606113    0.964602   -0.980755
O      3.590274   -0.569520   -0.525093
O      2.354372    1.822867   -0.036119
H     -4.312293    0.658704    0.827980
H     -4.370823   -1.149986    0.885301
H     -4.977758   -0.235733   -0.604040
H      4.133566   -2.479358   -0.005183
H      5.384843   -1.460202   -0.882077
H      3.974671   -2.215313   -1.751831
H      2.570652    3.840806    0.197066
H      0.960475    3.314412   -0.546093
H      1.270630    3.080288    1.194328
H     -0.456135   -2.563660    0.362041
H      1.968015   -2.654456   -0.262815
H     -2.234112   -1.300400    1.501711
H     -2.134136    0.469986    1.524837
H     -0.215627    1.615722    0.604333
H     -2.694871   -1.152658   -1.025673
H     -2.894661    1.712813   -0.324236
H     -1.661112    1.074693   -1.372419
