12

C     -0.528451    0.394404   -0.463943
C      1.769983    0.110994   -0.407054
C     -1.445073   -0.551490    0.325156
Cl    -1.400985    1.950621   -0.580826
F      2.671771    1.157536   -0.506480
F      2.309041   -0.963888    0.290245
F     -1.629590    0.059429    1.560173
F     -2.672039   -0.670648   -0.281855
F     -0.867663   -1.771175    0.519818
O      0.634754    0.502864    0.265485
H     -0.385257    0.006172   -1.490883
H      1.543508   -0.224818   -1.424940
