76

C     -3.460485   -3.474592    0.355430
C     -3.451322    1.737234   -3.085332
C     -3.997770    2.564897    1.228800
C      4.666700   -3.392624    0.053394
C      6.829279   -2.959338    1.055998
C      4.562011    3.249978   -0.052438
C      0.895779    0.946548   -0.191432
C      2.347664    1.317575   -0.447698
C      5.086663   -0.390662    0.499313
C     -4.432953   -1.796385    1.914550
C     -4.563931   -0.267306    1.875864
C     -4.223361   -0.473708   -2.205776
C     -4.544277   -1.140048   -0.860925
C      0.103643    2.024882    0.445915
C      5.829516   -1.323908   -0.424817
C      3.025406    1.638129    0.838460
C      5.120111    0.981965   -0.131779
C     -2.073836   -0.739345   -0.750114
C     -3.284900   -2.130357    0.977329
C     -2.151966    0.662904   -1.315844
C     -3.461521    0.172050    1.007787
C     -2.172493    1.743691   -0.284274
C     -3.596502    0.852403   -1.864767
C     -3.604673    1.452000    0.286885
C     -3.349865   -0.988526    0.008859
N     -1.243866    1.802498    0.731595
N      5.891654   -2.668973    0.028440
N      4.428894    1.982893    0.655974
O     -4.329257    1.431512   -0.869118
H     -2.913652   -4.216083    1.004412
H     -4.500788   -3.810843    0.308082
H     -2.942100   -3.472862   -0.628025
H     -3.712096    2.793481   -2.879701
H     -2.428586    1.619845   -3.489045
H     -4.126920    1.293981   -3.862196
H     -3.794920    2.246518    2.261035
H     -3.440000    3.479119    0.974801
H     -5.073250    2.761768    1.052454
H      4.729668   -4.151425    0.884819
H      3.762379   -2.762293    0.156508
H      4.592268   -4.004464   -0.877748
H      7.663476   -3.557557    0.584621
H      7.316631   -2.096455    1.523786
H      6.363575   -3.650128    1.795674
H      3.863151    4.011716    0.297063
H      5.607384    3.600298    0.125373
H      4.489372    3.025153   -1.131138
H      0.910282    0.037345    0.459805
H      0.471529    0.649544   -1.145942
H      2.381724    2.195974   -1.128065
H      2.818035    0.454028   -0.944301
H      5.583056   -0.297027    1.487444
H      4.052448   -0.717335    0.719156
H     -5.375187   -2.187114    1.439203
H     -4.302259   -2.182319    2.923947
H     -4.336706    0.071051    2.927453
H     -5.563324    0.054714    1.575809
H     -3.611535   -1.105643   -2.845904
H     -5.206367   -0.240365   -2.667955
H     -4.698946   -2.213070   -1.090399
H     -5.483498   -0.733955   -0.435291
H      0.608449    2.288671    1.437574
H      0.256156    3.005781   -0.131035
H      5.281036   -1.301343   -1.396904
H      6.829055   -0.921427   -0.602586
H      2.929016    0.858580    1.592895
H      2.565016    2.587335    1.247648
H      6.194630    1.298345   -0.155782
H      4.791712    0.973952   -1.188812
H     -2.024265   -1.427592   -1.617010
H     -1.243211   -0.922650   -0.074952
H     -2.365372   -2.089756    1.597072
H     -1.457075    0.834377   -2.168571
H     -2.489864    0.175626    1.544744
H     -2.272823    2.711676   -0.873632
H     -1.541646    2.217441    1.632014
