53

C     -2.386645   -2.157065    0.826765
C     -3.015281   -0.906390    1.268239
C     -1.857008   -2.388165   -0.346500
C     -2.286598   -0.369311    2.475413
C      3.377977    1.942576    2.777664
C      2.021673    1.907220    3.026242
C     -1.779890   -1.446383   -1.452242
C      3.847604    2.064851    1.500897
C      1.135200    1.999062    1.942862
C     -2.935302    0.844388    3.064916
C      1.341917   -1.791932   -3.498656
C      2.329007   -1.000887   -2.634449
C      1.272676   -2.627387   -1.349800
C      0.316866   -2.346912   -2.498509
C      1.818513   -1.218866   -1.224138
C     -0.425524   -1.138705   -1.989827
C      2.942570    2.154792    0.436299
C      1.592027    2.121460    0.662116
C     -3.045862    1.969630    2.163292
C      0.530975   -0.405738   -1.113670
Br     3.689397    2.328809   -1.309485
N      0.744036    0.901081   -1.692948
O     -3.757469    1.923356    1.137285
O     -2.358958    3.166313    2.400431
O     -0.898710    2.222811   -0.157918
O      0.684657    3.544815   -1.380574
S      0.483528    2.225443   -0.661736
H     -2.342144   -3.020805    1.552798
H     -4.064097   -1.148803    1.588917
H     -3.026124   -0.118241    0.512693
H     -1.443968   -3.407033   -0.521340
H     -2.263607   -1.158085    3.274405
H     -1.234065   -0.087403    2.192675
H      4.072187    1.870887    3.622852
H      1.676443    1.810809    4.034451
H     -2.270940   -0.472054   -1.250340
H     -2.435195   -1.887070   -2.276345
H      4.902891    2.091521    1.314997
H      0.090785    1.963050    2.216228
H     -3.937525    0.560568    3.519000
H     -2.287568    1.145987    3.949437
H      0.804675   -1.070069   -4.128851
H      1.850461   -2.597631   -4.048621
H      2.327534    0.067403   -2.915420
H      3.348456   -1.435426   -2.679064
H      0.821488   -2.993394   -0.439376
H      2.100171   -3.284786   -1.725709
H     -0.255807   -3.169467   -2.853693
H      2.528621   -1.060537   -0.436121
H     -0.638635   -0.542231   -2.950713
H      0.211055   -0.419034   -0.079422
H      0.347752    0.998771   -2.641361
H     -2.264224    3.844209    1.632161
