19

C     -0.775634    1.384814    0.095919
C     -0.684829   -0.952118    0.951617
C     -1.338866   -0.494913   -1.349835
C      2.315433    0.458476    0.505416
C     -0.429056   -0.040004   -0.209389
O      1.571526   -1.721200   -0.716652
S      1.268308   -0.200680   -0.846599
H     -1.878476    1.427769    0.213865
H     -0.518800    2.030052   -0.754977
H     -0.346829    1.738764    1.054511
H     -0.367023   -1.985054    0.623278
H     -0.115643   -0.670265    1.859070
H     -1.764313   -1.010483    1.112608
H     -1.033922    0.112551   -2.230247
H     -1.184769   -1.574545   -1.516636
H     -2.380240   -0.237798   -1.079588
H      3.320178   -0.014396    0.451718
H      2.462073    1.544044    0.348558
H      1.880884    0.204988    1.487364
