36

C      4.801002    1.087341   -1.294936
C     -0.675697   -1.718262   -1.133502
C     -0.300694   -2.984442    0.974213
C     -3.028106    2.294111   -0.159319
C     -1.832647    1.721195    0.472514
C     -3.918942    1.131012   -0.395478
C      2.708246    0.174301   -0.159565
C      1.209065    0.487392   -0.016910
C      3.351035    1.193221   -1.020367
C     -1.871660    0.421865    0.605047
C      0.532271   -0.537780    0.856368
C     -3.149801   -0.026966    0.053147
C     -0.884847   -0.519047    1.180923
C     -0.318186   -1.609896    0.299884
O      2.697516    2.092580   -1.487147
O     -3.546517   -1.218287   -0.032246
H      5.327245    1.578401   -0.430677
H      5.098000    0.007723   -1.222730
H      5.097227    1.514392   -2.264546
H     -1.450905   -2.502064   -1.257141
H      0.202505   -2.060331   -1.731967
H     -1.047509   -0.809360   -1.610602
H      0.367954   -2.931586    1.846356
H     -1.320146   -3.289134    1.261629
H      0.126089   -3.748858    0.275426
H     -3.488487    3.085661    0.465086
H     -2.791519    2.760217   -1.159512
H     -1.002279    2.329639    0.795579
H     -4.250386    1.066892   -1.451416
H     -4.855043    1.292367    0.201569
H      2.876484   -0.813398   -0.594228
H      3.197741    0.206153    0.845735
H      1.204676    1.448108    0.555633
H      0.824532    0.557751   -1.027797
H      1.252491   -0.902976    1.640333
H     -1.140709   -0.777935    2.245690
