40

C      4.616294   -0.101151   -1.330518
C     -1.108635   -0.828900    1.598530
C     -1.668469    2.126800    0.653363
C      1.080701    0.535621    0.090554
C      2.307965    0.391412   -0.731796
C      0.051465   -0.387342   -0.493474
C     -3.451207   -1.189311    0.208163
C     -2.546898   -0.524424   -1.782103
C      3.741027   -0.432704    1.050351
C      3.481052   -0.022439   -0.342152
C     -2.169322   -1.358502   -0.589332
C     -3.491823    0.309857    0.283423
C     -2.994869    0.746113   -1.043462
C     -1.256511   -0.407090    0.170884
C     -2.080272    0.821020    0.101417
O      4.749564    0.398175    1.577088
H      4.566243    0.818779   -1.969671
H      5.568459   -0.076180   -0.789534
H      4.550403   -1.007684   -1.955368
H     -0.379412   -0.160595    2.097944
H     -0.702652   -1.860263    1.710027
H     -2.059357   -0.696018    2.194738
H     -1.334814    2.797537   -0.187861
H     -0.971127    2.091902    1.486447
H     -2.595737    2.640692    1.045080
H      1.305491    0.438164    1.128747
H      0.746613    1.607260   -0.116217
H      2.249737    0.662087   -1.816519
H      0.485980   -1.428566   -0.409358
H      0.034838   -0.188427   -1.586453
H     -4.324608   -1.503856   -0.426263
H     -3.474490   -1.716341    1.145985
H     -3.432624   -0.948416   -2.326238
H     -1.770153   -0.348120   -2.509065
H      4.208998   -1.467727    1.068704
H      2.910255   -0.389723    1.730565
H     -1.821702   -2.337643   -0.745697
H     -4.225686    0.848792    0.860872
H     -3.385465    1.584070   -1.599530
H      4.590749    0.563139    2.547728
