33

C      2.674618    1.542226    0.181821
C     -1.522052   -2.374955    0.172468
C     -0.066793   -2.421473    0.485948
C     -0.366783    1.982412   -0.092238
C     -1.760064    2.418246    0.392140
C     -1.983293   -1.188913   -0.603681
C      1.926446    0.454680   -0.564432
C     -0.349083    0.584819    0.506438
C      0.682242   -1.510162   -0.417700
C     -2.513721    1.149504    0.193695
C      0.851406   -0.183130    0.300200
C      2.784625   -0.727453   -0.819609
N     -1.583762    0.063403   -0.006909
O     -3.784441    0.997067    0.192841
O      3.969453   -0.716829   -1.205103
O      2.064959   -1.882494   -0.562259
H      2.639831    2.507908   -0.368220
H      2.343902    1.627971    1.234192
H      3.774063    1.290177    0.240019
H     -2.143426   -2.408490    1.115358
H     -1.833494   -3.296770   -0.384644
H      0.275184   -3.488635    0.389122
H      0.045079   -2.117376    1.568057
H      0.358348    2.656353    0.361719
H     -0.407573    1.984705   -1.181101
H     -2.168375    3.230238   -0.218128
H     -1.744051    2.613973    1.473175
H     -3.112176   -1.245656   -0.610723
H     -1.718174   -1.233555   -1.693783
H      1.531420    0.795373   -1.534259
H     -0.519208    0.748201    1.613191
H      0.291263   -1.413191   -1.423575
H      1.363629   -0.438173    1.265978
