39

C     -2.065952    2.323312    0.859202
C      2.590608   -0.298519    1.326947
C      2.822580    0.868757   -0.788289
C     -0.207234   -1.335347    1.514534
C     -2.662861   -1.326798   -0.166860
C     -2.796162    0.052101    0.315530
C      0.769541   -0.416744   -1.964835
C     -1.296316   -1.698848   -0.628410
C     -0.343659    0.579281   -1.655464
C      0.698502    1.137460    0.503601
C     -1.799940    0.944393    0.341753
C      1.113211   -0.963421   -0.594735
C      1.831384    0.169798    0.128542
C     -0.229860   -0.959391    0.082143
C     -0.502229    0.541445   -0.131700
H     -1.110777    2.890959    0.844948
H     -2.429708    2.276844    1.917321
H     -2.811485    2.796037    0.184693
H      2.069545   -0.107376    2.293332
H      3.569078    0.260596    1.432076
H      2.919901   -1.374782    1.243893
H      3.387418    0.162545   -1.399653
H      2.358688    1.702117   -1.347954
H      3.583443    1.368683   -0.116581
H     -0.301594   -0.466399    2.209956
H      0.667047   -1.989722    1.795165
H     -1.100190   -1.983221    1.766012
H     -3.425556   -1.470384   -0.978825
H     -3.016592   -2.011433    0.658971
H     -3.764255    0.377667    0.676835
H      1.624499    0.134241   -2.425322
H      0.471014   -1.182434   -2.682795
H     -1.160388   -2.796525   -0.395677
H     -1.272348   -1.635881   -1.728551
H     -0.055079    1.614038   -1.909233
H     -1.275774    0.353482   -2.178076
H      0.605905    1.248464    1.582167
H      0.906224    2.111957    0.008407
H      1.639369   -1.896953   -0.593067
