40

C      4.472947   -0.900884   -1.297880
C     -1.897727    1.519701   -1.135705
C     -0.999262    1.358708    1.900852
C      1.045127    0.793323   -0.589146
C      2.258919    0.135546   -1.076505
C     -0.092486   -0.178414   -0.834890
C     -1.932005   -1.956440    0.187559
C     -3.620485   -0.433643    0.006334
C      3.637746    0.013096    0.931001
C      3.362075   -0.206685   -0.474120
C     -2.401681   -0.892029   -0.763445
C     -1.764595   -1.106231    1.444751
C     -2.963382   -0.233722    1.368204
C     -1.439936    0.250684   -0.442022
C     -1.605342    0.285646    1.049139
O      2.652012    0.619750    1.629232
H      4.281760   -0.719231   -2.354722
H      4.312681   -1.978984   -1.095668
H      5.451765   -0.612629   -0.920038
H     -1.101810    1.769761   -1.887478
H     -2.110908    2.334016   -0.441473
H     -2.816002    1.353673   -1.739262
H     -0.159601    0.940949    2.475916
H     -0.775122    2.266406    1.350344
H     -1.770641    1.632315    2.688346
H      0.899880    1.736477   -1.180041
H      1.043437    1.066599    0.448670
H      2.215998   -0.114894   -2.178559
H     -0.090724   -0.356928   -1.950688
H      0.243857   -1.106653   -0.330394
H     -1.070017   -2.531432   -0.103356
H     -2.764661   -2.696424    0.345044
H     -4.386307   -1.229857    0.026492
H     -4.080004    0.470884   -0.384095
H      4.022258   -0.920449    1.445699
H      4.538320    0.719422    0.976206
H     -2.523534   -1.137068   -1.780006
H     -1.415357   -1.559329    2.362411
H     -3.544030    0.080071    2.221964
H      2.886833    1.524901    1.910844
