33

C     -1.981269    1.907455   -0.031260
C      0.855250   -1.186233    1.355183
C      2.817189    0.280919   -0.043771
C      2.298296    1.432717    0.339071
C     -1.575361   -1.819042   -0.034429
C     -2.201285   -0.501913    0.272428
C      2.005616   -0.737097   -0.751589
C     -0.273875   -1.763435   -0.742236
C      0.869538    1.741456    0.066482
C     -1.297126    0.637037    0.492436
C      0.656920   -0.771233   -0.062818
C      0.019964    0.562969   -0.244711
O     -0.322176    0.657362   -1.617804
H     -2.219081    1.717692   -1.113750
H     -1.313029    2.769513   -0.008395
H     -2.939954    2.068268    0.467617
H      1.174527   -2.262847    1.342525
H      1.629249   -0.642027    1.894947
H     -0.064256   -1.158792    1.963332
H      3.850472    0.058453    0.153690
H      2.891221    2.179482    0.857813
H     -1.422324   -2.426355    0.906122
H     -2.273337   -2.438092   -0.647633
H     -2.968221   -0.286951   -0.528714
H     -2.820698   -0.641247    1.201089
H      1.837076   -0.347447   -1.797420
H      2.450681   -1.730096   -0.754875
H     -0.452639   -1.341584   -1.773720
H      0.149451   -2.764680   -0.814299
H      0.436337    2.312033    0.935980
H      0.882503    2.504829   -0.766760
H     -1.090663    0.855482    1.573351
H      0.391003    1.133403   -2.087880
