28

C      2.230285    1.201963   -1.696810
C     -1.503280   -0.212749   -1.369831
C     -1.441448    1.383216    0.530706
C      1.077331    1.264553   -1.047955
C     -0.065375   -0.451471    2.042627
C      1.021586    0.274628    1.248343
C     -0.011091   -2.024875    0.203241
C     -0.903764   -1.032704    0.928003
C      0.868109   -1.182975   -0.695181
C     -0.909370    0.122994   -0.052131
C      0.621326    0.198139   -0.197035
O      1.568935   -1.600651   -1.576923
H      2.865221    0.343981   -1.605628
H      2.554624    2.013635   -2.330987
H     -1.048303   -1.136495   -1.779906
H     -2.588853   -0.307209   -1.326640
H     -1.251515    0.596898   -2.082980
H     -2.492569    1.262735    0.807652
H     -1.396528    2.167079   -0.250675
H     -0.820376    1.748818    1.371659
H      0.472499    2.148435   -1.171121
H     -0.608301    0.213603    2.710228
H      0.364516   -1.322203    2.601820
H      1.988029   -0.297398    1.346706
H      1.156138    1.298402    1.601391
H      0.680252   -2.490501    0.937485
H     -0.563523   -2.776660   -0.356137
H     -1.864554   -1.403186    1.210078
