26

C     -2.498533    0.515399   -0.159442
C      2.457411   -0.691470   -0.271650
C     -1.251888    1.233685    0.244742
C      1.268473   -1.226244    0.476418
C     -2.377408   -0.983944   -0.115273
C      2.389641    0.807743   -0.250278
C     -0.009693    0.669333   -0.433981
C      0.010544   -0.818112   -0.287510
N     -1.111197   -1.316659    0.492909
N      1.125758    1.330755    0.157033
H     -3.289749    0.787876    0.593546
H     -2.848578    0.868374   -1.162847
H      2.505478   -1.096295   -1.311874
H      3.367107   -1.092501    0.242104
H     -1.112008    1.201092    1.352430
H     -1.377443    2.304541   -0.026985
H      1.214081   -0.680231    1.447408
H      1.315063   -2.300072    0.670995
H     -3.166182   -1.461641    0.506214
H     -2.381922   -1.396259   -1.149886
H      2.741403    1.203073   -1.229532
H      3.150002    1.167408    0.503566
H     -0.107821    0.910521   -1.518583
H     -0.041403   -1.338287   -1.280792
H     -1.054337   -0.936312    1.468325
H      1.083203    2.338226   -0.166127
