30

C     -0.599999   -0.990156    1.830756
C     -0.388764    1.652023    1.066662
C     -2.245839   -0.641757   -0.974432
C      2.101237   -0.308507    0.352177
C      1.953858    1.007644   -0.390409
C     -1.419889   -1.471370   -0.391317
C     -1.840526    0.740699   -0.654734
C      0.818535   -0.622050   -1.552481
C      0.965261   -1.193213   -0.124156
C      0.632001    0.832332   -1.074440
C     -0.367592   -0.759909    0.384778
C     -0.461282    0.663724   -0.057670
H     -1.564363   -0.520925    2.108400
H      0.193702   -0.610909    2.492180
H     -0.741410   -2.085775    1.989406
H      0.546138    1.617653    1.639778
H     -0.532786    2.664759    0.652008
H     -1.218596    1.458188    1.755486
H     -3.086135   -0.914746   -1.588629
H      2.129527   -0.189134    1.433948
H      3.039443   -0.784151    0.010190
H      2.030290    1.877807    0.250306
H      2.728720    1.087537   -1.207771
H     -1.483067   -2.551309   -0.457366
H     -1.921828    1.434356   -1.499826
H     -2.570803    1.108863    0.124786
H     -0.062465   -1.005969   -2.056133
H      1.770874   -0.760325   -2.065652
H      1.173919   -2.247917   -0.115734
H      0.421838    1.512538   -1.880112
