59

C      0.369849    0.014424   -3.794493
C     -5.384477   -3.277449    0.942279
C      5.296575   -2.421854    0.639372
C     -3.422062    1.039308    0.432311
C     -5.677742   -0.501448    0.597996
C      5.676145    0.183593   -0.138638
C      3.604393    1.951192   -0.267137
C     -0.182520    0.371431    1.782081
C     -0.402174   -2.294663   -0.073308
C     -6.494986    2.943370   -0.205231
C      6.755701    3.608916   -0.739854
C     -0.138409   -0.423040   -2.468372
C     -3.275106   -0.301989    0.596172
C     -0.805245   -0.044114    0.466222
C     -4.434878   -1.075578    0.679158
C      4.376946   -0.226346    0.193922
C     -4.680439    1.646607    0.346451
C     -5.805043    0.863408    0.430831
C      5.898948    1.485598   -0.530476
C      4.852016    2.389657   -0.598212
C      3.339276    0.639985    0.134715
C     -1.976997   -0.930758    0.693354
C      1.396973   -0.799061    0.835299
C      0.212276   -0.962252   -0.119905
O     -1.350926   -0.700736   -2.279621
O     -4.294261   -2.416062    0.841925
O      4.218388   -1.524229    0.574713
O      0.749037   -0.628228    2.069293
O     -1.794080   -2.061817   -0.099905
O     -5.111964    2.944176    0.184522
O     -6.930533    1.702070    0.317569
O      7.031866    2.211012   -0.921067
O      5.370948    3.627299   -1.022848
O      2.076696    0.336472    0.432694
O      0.689241   -0.549390   -1.373137
H      0.129591   -0.790814   -4.504625
H      1.465814    0.118459   -3.756741
H     -0.117028    0.985602   -4.075744
H     -6.185652   -2.812816    1.514923
H     -5.026692   -4.227054    1.406927
H     -5.799381   -3.576940   -0.053490
H      5.763832   -2.614404   -0.332878
H      6.058832   -1.995501    1.346054
H      4.919418   -3.358842    1.055065
H     -2.597804    1.738971    0.359215
H     -6.601429   -1.053985    0.654880
H      6.511041   -0.473000   -0.101635
H      2.790057    2.681425   -0.327106
H      0.233087    1.376682    1.792902
H     -0.971033    0.310432    2.557825
H     -0.133762   -2.978579   -0.895577
H     -0.115938   -2.823723    0.867260
H     -6.945929    3.807781    0.291019
H     -6.541715    3.017035   -1.293131
H      6.888243    3.886925    0.319248
H      7.353303    4.223103   -1.425944
H     -0.947719    0.785030   -0.242297
H     -1.892266   -1.324847    1.757402
H      2.009699   -1.720448    0.860604
