26

C     -2.049779    1.283550   -0.315307
C     -2.446719   -0.024224    0.227180
C     -0.605620    1.602013   -0.327511
C     -1.419970   -1.083459    0.284515
C      0.856427   -1.670813   -0.164175
C      0.253133    0.524591    0.316193
C      2.131113   -0.857707    0.096728
C      1.686471    0.599683   -0.087460
N     -0.184018   -0.719856   -0.337958
O      2.486182   -1.015564    1.429276
O      2.412329    1.384456    0.814172
H     -2.459624    1.437252   -1.357046
H     -2.569783    2.086389    0.287302
H     -3.308258   -0.414718   -0.392034
H     -2.894968    0.078247    1.258335
H     -0.219252    1.685014   -1.386162
H     -0.342987    2.576944    0.140871
H     -1.760862   -2.056655   -0.176762
H     -1.172034   -1.372507    1.347662
H      0.698605   -2.417088    0.616805
H      1.008611   -2.186297   -1.157512
H      0.102465    0.482214    1.399900
H      2.920371   -1.125034   -0.607532
H      1.802692    0.911549   -1.126536
H      2.345373   -1.933169    1.754411
H      2.730102    2.225187    0.424518
