63

C     -5.035187   -0.455891   -0.109004
C     -4.725062   -0.642617   -1.539152
C     -4.204069   -0.046122    0.828797
C     -5.609417    0.228148   -2.381188
C      8.018117   -0.130153    0.697357
C      8.504005   -0.062711   -0.591954
C     -2.787840    0.294117    0.545655
C      6.700981    0.184608    0.977240
C      7.631057    0.328200   -1.583834
C     -5.464137    1.695954   -2.144875
C     -1.453743   -2.857299    2.188026
C      0.039871   -2.782575    1.858363
C      1.913581    1.717384   -0.557321
C      2.865192    1.617194   -1.567939
C     -1.162032   -2.314992   -0.053989
C      3.529449    1.039063    1.005876
C     -2.150532   -2.075590    1.090789
C      0.069787   -1.807761    0.741205
C      2.233017    1.428224    0.750754
C     -1.942283   -0.637027    1.382741
C      5.820773    0.577397   -0.014663
C      4.481934    0.935742    0.014297
C      6.304552    0.645934   -1.306323
C      4.164324    1.224041   -1.294136
C     -5.779739    2.165234   -0.790817
C     -0.443864   -0.439027    1.097946
N      5.258931    1.045226   -2.056089
N      0.251031    0.027231    2.262992
O     -4.956354    2.867699   -0.130622
O     -7.007026    1.841713   -0.202315
O      0.082531    2.634341    1.641019
O      1.754644    1.989473    3.262548
S      1.025460    1.549470    2.014870
H     -6.070054   -0.684421    0.229020
H     -3.684682   -0.427361   -1.825110
H     -4.997211   -1.704480   -1.814895
H     -4.605935    0.038660    1.858571
H     -5.498572   -0.029090   -3.469687
H     -6.680177   -0.017918   -2.080357
H      8.692209   -0.435576    1.483687
H      9.546535   -0.314645   -0.799633
H     -2.644050    1.320290    0.965796
H     -2.515876    0.350393   -0.493095
H      6.295679    0.138454    1.988500
H      8.009367    0.381696   -2.593558
H     -4.404685    1.985422   -2.388048
H     -6.152855    2.246488   -2.849542
H     -1.813689   -3.896697    2.258459
H     -1.582162   -2.301103    3.139448
H      0.633272   -2.569464    2.741798
H      0.276728   -3.792127    1.426336
H      0.893607    2.033029   -0.795827
H      2.613775    1.842705   -2.587348
H     -1.364651   -1.680333   -0.914877
H     -1.083758   -3.388324   -0.259976
H      3.794993    0.809876    2.025622
H     -3.149833   -2.402501    0.875782
H      0.964117   -1.811175    0.121309
H     -2.164779   -0.403808    2.451337
H     -0.327289    0.274176    0.246381
H      5.289948    1.194385   -3.075178
H      1.011435   -0.648277    2.486504
H     -7.209354    2.107101    0.760611
