64

C      3.260005    0.559989    1.591419
C      4.663102    0.856623    1.315765
C      2.217575    1.183260    1.074215
C      5.412657   -0.336817    0.708247
C     -6.280073   -3.939743    1.454889
C     -6.910132   -3.389645    0.354174
C     -5.172954   -3.297874    1.974001
C     -6.408750   -2.216514   -0.187054
C      2.348975    2.281791    0.131938
C      5.349168   -1.478816    1.688891
C      2.243363    0.930096   -3.378196
C      0.715526    1.118865   -3.450928
C     -3.958483    1.614771   -1.158765
C     -4.790670    0.528232   -1.017614
C      1.330714   -0.222216   -1.614065
C     -3.514497   -1.287019    1.828499
C     -2.689097    0.914863    0.699542
C     -4.672361   -2.137177    1.442943
C      2.386280    0.857278   -1.862098
C      0.159928    0.617856   -2.167042
C     -3.535885   -0.185939    0.838917
C     -2.877512    1.843098   -0.301476
C     -5.296549   -1.592196    0.352474
C     -4.578418   -0.372136   -0.017843
C      1.729644    2.055225   -1.214655
C      6.062516   -2.663727    1.153281
C      0.231912    1.753620   -1.151495
N     -0.602642    2.790376   -1.618431
O      6.600812   -2.583063    0.020565
O      6.161298   -3.850287    1.843278
O     -2.690306    4.334370   -1.100812
O     -1.319066    3.668123    0.809843
S     -1.858344    3.246326   -0.535174
H      3.044766   -0.257060    2.296072
H      4.900357    1.785350    0.813330
H      5.160037    0.958857    2.333206
H      1.231702    0.859879    1.375864
H      6.477955   -0.066711    0.592991
H      5.009086   -0.622906   -0.269064
H     -6.671693   -4.844720    1.867651
H     -7.788123   -3.838844   -0.110128
H     -4.694161   -3.759534    2.848857
H     -6.877972   -1.768401   -1.040585
H      1.757240    3.149809    0.575924
H      3.348842    2.707335   -0.011826
H      4.301509   -1.798341    1.884008
H      5.862324   -1.179325    2.623500
H      2.785825    1.758566   -3.826958
H      2.451018   -0.066191   -3.777359
H      0.302591    0.627501   -4.349399
H      0.596939    2.216716   -3.547408
H     -4.125620    2.329061   -1.950680
H     -5.605146    0.405333   -1.706760
H      1.200308   -0.484959   -0.570381
H      1.520580   -1.095303   -2.269743
H     -2.562070   -1.832710    1.808754
H     -3.719658   -0.873064    2.845533
H     -1.861777    1.068388    1.375934
H      3.367732    0.610271   -1.510169
H     -0.767197    0.093055   -2.190876
H      1.820523    2.956707   -1.873083
H     -0.041251    1.352796   -0.152537
H     -1.075988    2.508823   -2.500515
H      6.933588   -4.501967    1.719316
