67

C     -2.942038    4.956384    0.874376
C     -4.028769   -3.855344   -1.153685
C     -3.090637    2.804515   -1.024669
C      1.749534   -2.045586    1.750467
C     -2.831150    3.501519    1.279948
C      1.481858   -3.677783   -0.059656
C      0.284677   -4.134031   -0.363625
C      2.269767    0.325653   -1.017010
C      0.952988    0.026569   -0.283679
C     -2.067623   -3.915367    0.294739
C     -2.995462   -1.746210   -0.517913
C      3.834573    2.136040   -1.625204
C      4.918190    2.621632    0.505064
C     -3.319911   -3.123383   -0.032836
C     -2.179804    2.657889    0.204510
C      1.779072   -2.236321    0.241416
C     -0.915271   -3.263111   -0.442138
C      4.989730    1.751184   -0.758150
C      2.543255    1.844834   -0.905041
C      0.647952   -1.415373   -0.388006
C     -1.814653   -1.132441    0.271184
C      3.666638    2.192837    1.183820
C     -0.592708   -1.916418    0.237366
C     -2.196107    1.251764    0.639582
O      6.218934    1.922181   -1.393793
O      3.742609    1.798706    2.365282
O     -2.596995    0.950912    1.797447
O      2.511416    2.272608    0.427083
O     -1.785814    0.198289   -0.168000
H     -3.992772    5.220066    0.554911
H     -2.629469    5.552829    1.755025
H     -2.268878    5.097123   -0.004335
H     -3.684414   -3.488217   -2.165205
H     -3.844854   -4.946576   -1.134554
H     -5.110753   -3.590615   -1.103481
H     -2.745525    2.040470   -1.753089
H     -3.074617    3.823259   -1.413356
H     -4.097615    2.482516   -0.674658
H      1.327450   -2.936847    2.246940
H      1.209690   -1.139503    2.052666
H      2.797284   -1.947388    2.153361
H     -2.346783    3.369744    2.268723
H     -3.889970    3.141511    1.427889
H      2.317129   -4.371803   -0.018827
H      0.138366   -5.191383   -0.571263
H      3.129233   -0.196443   -0.616509
H      2.056544    0.159640   -2.092363
H      0.975085    0.409959    0.751137
H      0.238027    0.696426   -0.854101
H     -1.856780   -3.887249    1.383997
H     -2.124065   -4.970845   -0.002801
H     -2.740435   -1.731607   -1.592497
H     -3.869551   -1.094573   -0.321897
H      3.918995    3.227264   -1.874544
H      3.900721    1.539022   -2.579627
H      5.812232    2.531317    1.121900
H      4.798844    3.670293    0.096151
H     -4.005143   -3.082430    0.826087
H     -1.163621    3.047253   -0.006080
H      2.772164   -1.978899   -0.098605
H     -1.198253   -3.047475   -1.475197
H      4.922293    0.711250   -0.435401
H      1.734343    2.391732   -1.440186
H      0.660440   -1.683552   -1.481739
H     -2.212742   -1.108165    1.330098
H     -0.337227   -2.227243    1.296304
H      6.250373    2.756991   -1.904330
