52

C      3.043025    3.837854    0.710802
C     -5.164763    2.461898   -0.099008
C     -3.042523   -1.560433    3.002168
C      0.161751   -4.867168    0.562909
C      0.442781   -3.582866    1.001409
C     -1.131073    1.299320   -0.838698
C     -2.435151    1.649837   -0.578221
C      1.584680   -1.842857   -2.036512
C      0.850224   -0.552730   -1.785536
C      1.863002    0.925052   -0.106003
C      0.352303   -5.170753   -0.778800
C      1.762846    2.212851   -0.791457
C     -1.336282   -0.299094    0.894764
C      1.211264   -1.256610    0.614624
C      4.132255    2.855646   -1.266802
C      0.901003   -2.602688    0.160971
C     -0.567897    0.277468   -0.056879
C      1.077760   -2.948669   -1.173712
C     -3.209516    1.070191    0.379872
C     -2.660392    0.043561    1.168201
C      0.841921   -0.138210   -0.319458
N      0.809767   -4.176827   -1.593697
N      2.995721    2.977646   -0.444198
O      4.070381    2.098318   -2.269394
O     -4.540132    1.420422    0.655044
O     -3.446163   -0.538307    2.128276
H      2.950632    4.902938    0.388117
H      4.091621    3.778820    1.126759
H      2.286948    3.578455    1.474287
H     -4.813822    3.417076    0.326288
H     -6.263124    2.445418    0.002232
H     -4.900386    2.370139   -1.154129
H     -2.081833   -1.234207    3.469932
H     -3.784689   -1.689031    3.817592
H     -2.849762   -2.521147    2.464392
H     -0.203875   -5.633380    1.254683
H      0.300518   -3.324302    2.045348
H     -0.580500    1.765658   -1.638192
H     -2.888826    2.463587   -1.184497
H      1.359555   -2.131501   -3.085772
H      2.651674   -1.637005   -1.916082
H      1.359682    0.236963   -2.364659
H     -0.159065   -0.677089   -2.210700
H      2.004308    1.129316    1.004783
H      2.859120    0.454692   -0.381941
H      0.137957   -6.170062   -1.127912
H      0.920190    2.859134   -0.439433
H      1.726990    2.138292   -1.864609
H     -0.979111   -1.120957    1.545759
H      0.888475   -1.118895    1.656248
H      2.368042   -1.257606    0.717460
H      5.032487    3.381840   -1.066617
