43

C     -4.617550   -0.262048   -0.097272
C      5.399318   -0.158906    0.337457
C      0.137020   -3.162614    2.355458
C      1.697840    2.846815   -1.421721
C     -1.469574    1.584337   -0.074793
C     -3.002283    1.534169    0.165903
C      2.115129   -1.476768    1.250678
C      2.651204    0.497722    0.017720
C     -2.750438   -0.093704   -1.598896
C      3.071926   -0.637204    0.704586
C     -1.028556    0.178753    0.229736
C     -1.479150   -0.600003   -1.031916
C      0.776989   -1.194898    1.116361
C      1.323412    0.817985   -0.140940
C      0.399486   -0.035555    0.412098
N     -3.620462    0.578120   -0.691750
O     -0.467686   -0.290684   -1.985873
O      4.394822   -0.987272    0.881598
O     -0.237314   -1.998959    1.644571
O      0.878484    1.914512   -0.805910
H     -4.723376   -0.093090    0.986679
H     -5.615929   -0.047593   -0.556500
H     -4.450923   -1.342304   -0.302670
H      6.404407   -0.673391    0.377482
H      5.471808    0.795331    0.863600
H      5.109503    0.006098   -0.733642
H     -0.769356   -3.649692    2.818746
H      0.825302   -2.925287    3.199721
H      0.639847   -3.899240    1.718296
H      1.636612    2.733167   -2.549608
H      1.375305    3.900699   -1.257291
H      2.767238    2.808897   -1.188999
H     -1.061588    2.322027    0.607063
H     -1.395526    1.812742   -1.154086
H     -3.433104    2.546107    0.110469
H     -3.100733    1.180088    1.215761
H      2.406680   -2.384396    1.804294
H      3.439957    1.129878   -0.396420
H     -2.593456    0.622198   -2.458192
H     -3.300365   -0.941976   -2.054848
H     -1.640871   -0.223796    1.053762
H     -1.411728   -1.667321   -0.823552
H     -0.752325    0.488227   -2.547160
