67

C     -2.078389    3.753088    2.684038
C     -2.023474   -5.120628   -0.447792
C     -4.367181    2.148955    2.114464
C      0.927847    0.943972   -2.453106
C     -2.011985    2.593660    1.717077
C      0.663112   -1.268547   -3.366791
C     -0.275960   -2.200428   -3.335556
C      2.294702    0.027702    0.450222
C      0.778989   -0.019313    0.220233
C     -2.177989   -3.192922   -2.044633
C     -1.776116   -2.767984    0.401346
C      4.099768    1.004619    1.811712
C      4.345904    2.702703   -0.004902
C     -2.438314   -3.694781   -0.614530
C     -2.991428    1.492088    2.137169
C      1.194222   -0.525383   -2.198592
C     -0.853827   -2.538182   -2.024072
C      4.843908    1.415898    0.580067
C      2.606827    0.974920    1.603943
C      0.520996   -0.948044   -0.898476
C     -1.877483   -1.359127   -0.165726
C      3.059410    3.130526    0.596207
C     -0.889207   -1.214321   -1.241173
C     -2.995998    0.445999    1.083253
O      6.205234    1.540893    0.948130
O      2.753804    4.346281    0.523576
O     -4.011372    0.222600    0.344979
O      2.188995    2.266465    1.226131
O     -1.900763   -0.371207    0.815761
H     -1.522138    3.581832    3.613343
H     -3.124758    4.064210    2.826945
H     -1.566128    4.612455    2.160838
H     -2.268934   -5.662697   -1.389433
H     -0.960064   -5.248674   -0.185324
H     -2.606160   -5.614205    0.357329
H     -4.373216    2.827271    1.235959
H     -4.591959    2.661193    3.068502
H     -5.092761    1.340325    1.894024
H      1.785878    1.590894   -2.196197
H      0.746714    1.130522   -3.551842
H      0.054037    1.321801   -1.880242
H     -2.361227    2.965922    0.729840
H     -1.004947    2.179579    1.672767
H      1.091029   -1.016824   -4.330699
H     -0.579167   -2.672321   -4.263537
H      2.843078    0.369494   -0.424449
H      2.650638   -0.974504    0.763513
H      0.396484   -0.520599    1.158872
H      0.364535    0.986088    0.106890
H     -2.148832   -4.068184   -2.694282
H     -3.011345   -2.524283   -2.352206
H     -0.715260   -3.052319    0.563254
H     -2.314978   -2.870888    1.366205
H      4.388913    1.697517    2.624045
H      4.410707   -0.048430    2.059948
H      4.209478    2.647706   -1.119829
H      5.119154    3.491415    0.161941
H     -3.543620   -3.628885   -0.433693
H     -2.733584    1.096870    3.138497
H      2.291812   -0.648442   -2.087258
H     -0.143310   -3.204333   -1.470601
H      4.848583    0.643764   -0.223496
H      2.125913    0.634113    2.541279
H      1.021954   -1.927246   -0.632368
H     -2.900354   -1.326264   -0.652878
H     -1.265107   -0.444039   -1.970061
H      6.664712    1.820665    0.099646
