43

C     -3.804330   -1.729249    0.757632
C      5.528388   -0.376564    0.275298
C      1.189568   -2.850283    1.918319
C      0.797123    3.196224   -2.183782
C     -1.811938    0.031073   -1.336345
C     -3.267238   -0.293437   -1.093958
C      2.597580   -0.697815    0.494209
C      2.411219    1.264470   -0.852706
C     -3.039995    0.531797    1.197340
C      3.226452    0.328269   -0.183167
C     -1.021789   -0.049028   -0.007472
C     -1.688570    1.073687    0.816156
C      1.244200   -0.788008    0.502670
C      1.033216    1.146882   -0.826951
C      0.396012    0.135134   -0.164179
N     -3.609847   -0.403584    0.270613
O     -1.925188    2.196584   -0.004068
O      4.594214    0.505991   -0.276980
O      0.618614   -1.816521    1.192650
O      0.243615    2.080554   -1.486990
H     -3.316876   -1.905552    1.732861
H     -3.597134   -2.542625    0.026329
H     -4.917167   -1.836776    0.953137
H      5.802748   -1.186696   -0.465465
H      5.234573   -0.854483    1.213676
H      6.484457    0.173522    0.419686
H      2.261930   -3.046554    1.692244
H      1.077030   -2.631909    3.013188
H      0.645602   -3.816336    1.759727
H      1.495788    2.948310   -2.973524
H      1.288503    3.875516   -1.434453
H     -0.065944    3.818304   -2.564896
H     -1.617756    0.870468   -1.962326
H     -1.440631   -0.906780   -1.936220
H     -3.978227    0.381175   -1.601307
H     -3.515535   -1.299683   -1.557598
H      3.240648   -1.416243    1.011357
H      2.886147    2.069809   -1.400948
H     -2.948032    0.022523    2.171376
H     -3.731065    1.388180    1.389789
H     -1.282141   -0.986871    0.476165
H     -1.139469    1.319219    1.732805
H     -2.578754    2.077305   -0.703895
