42

C     -2.907126   -2.577180    0.029287
C     -1.292208    2.663448    0.877934
C     -1.853888    2.135824   -1.428444
C      2.789518    1.231261    1.245982
C      3.294015    0.682693   -1.077769
C     -0.471101   -3.090949   -0.055402
C      0.786569   -2.310341    0.347738
C     -1.747500    0.354329    0.264699
C      0.335326    1.476267   -0.574981
C     -1.535518   -2.130941    0.431876
C      0.386294   -0.915168   -0.035557
C     -1.094501   -0.874587   -0.313624
C      1.016649    0.237612   -0.172400
C     -1.092755    1.597663   -0.209121
C      2.498296    0.243504    0.108119
O      2.952105   -0.990018    0.526943
H     -3.191382   -2.124831   -0.937034
H     -2.881976   -3.685869   -0.064941
H     -3.638449   -2.351833    0.840693
H     -2.372627    2.561674    1.181738
H     -1.060076    3.666452    0.486549
H     -0.669857    2.438352    1.764693
H     -1.632648    3.236363   -1.493032
H     -2.945887    2.018785   -1.252397
H     -1.516791    1.613009   -2.344972
H      2.081784    1.093542    2.067283
H      2.797196    2.253157    0.835115
H      3.840492    1.014059    1.566699
H      2.665174    0.932937   -1.954487
H      3.955240    1.561569   -0.849870
H      4.012516   -0.114793   -1.428154
H     -0.540677   -3.137914   -1.148051
H     -0.516977   -4.066576    0.454024
H      1.618914   -2.700057   -0.272529
H      0.927834   -2.404095    1.423197
H     -1.802878    0.270253    1.370583
H     -2.796794    0.350197   -0.095935
H      0.494812    1.610356   -1.677994
H      0.890926    2.345002   -0.115150
H     -1.407989   -2.008281    1.527921
H     -1.312277   -1.010191   -1.374254
H      2.938220   -1.094683    1.525026
