38

C     -3.919243   -1.234641   -0.225940
C     -4.319382    0.323091    1.598243
C     -3.818271    1.156318   -0.708945
C      2.082436    0.878403    1.120914
C      0.713787    0.268258    1.105630
C      4.377998    0.058461    0.540899
C      1.081705   -0.210731   -1.300174
C      2.988578    0.391921    0.046293
C      2.366075   -0.781428   -0.680007
C     -1.205246   -0.029927   -0.401274
C     -3.504508    0.116974    0.327037
N      5.157259   -0.405257   -0.617116
N      0.191803    0.010148   -0.193865
O      3.197168   -1.308740   -1.642741
O     -1.701394   -0.259195   -1.555660
O     -2.128943    0.172405    0.611598
H     -3.342044   -2.045043    0.235929
H     -3.872299   -1.249212   -1.339163
H     -4.991889   -1.408484    0.031865
H     -4.298897   -0.624651    2.191657
H     -3.938267    1.180385    2.153983
H     -5.362854    0.526576    1.258485
H     -4.803070    1.638812   -0.467085
H     -3.033475    1.930582   -0.703062
H     -3.836056    0.681447   -1.700670
H      1.998130    2.004519    1.115092
H      2.544462    0.634094    2.105114
H      0.028217    1.013143    1.605973
H      0.699691   -0.621147    1.766343
H      4.909356    0.921310    0.937011
H      4.317386   -0.809767    1.227999
H      0.668467   -0.890858   -2.067070
H      1.336476    0.755145   -1.815244
H      3.078409    1.209458   -0.721023
H      2.087118   -1.521019    0.111843
H      6.125465   -0.673294   -0.336377
H      5.230924    0.436358   -1.259134
H      2.894929   -2.234413   -1.840226
