37

C     -3.023812    2.466062   -1.126810
C     -3.751148   -1.369767    0.280359
C     -1.620806    2.933259   -1.188398
C     -2.501863   -1.693839    1.052839
C      5.182703   -1.697759    1.027037
C      4.486707   -2.522369    0.179153
C      4.629706   -0.540450    1.491937
C     -0.523436    1.961267   -1.011783
C      3.217288   -2.145220   -0.185589
C      3.343281   -0.191195    1.101609
C      2.634653   -0.997989    0.258930
C     -0.341979    1.264312    0.271982
C      1.254553   -0.584138   -0.135224
C     -1.463452    0.441282    0.706043
N      0.836274    0.469599    0.330079
O      0.566587   -1.423492   -0.990204
O     -2.505180    0.944346    1.162048
O     -1.397014   -0.933750    0.622072
H     -3.169541    1.402646   -1.331901
H     -3.617335    2.834177   -0.259528
H     -3.559752    2.974926   -2.002410
H     -4.439666   -2.245237    0.405452
H     -3.519471   -1.326633   -0.810381
H     -4.283203   -0.484038    0.649966
H     -1.523468    3.728129   -0.385477
H     -1.463354    3.471127   -2.164950
H     -2.657950   -1.437765    2.139346
H     -2.234646   -2.760861    0.928768
H      6.188739   -1.970675    1.332423
H      4.919002   -3.451159   -0.199406
H      5.182570    0.119299    2.168421
H     -0.591804    1.211114   -1.853347
H      0.428757    2.520082   -1.274980
H      2.632499   -2.772555   -0.856839
H      2.922381    0.718124    1.473333
H     -0.239292    2.109606    1.064574
H      0.002472   -1.020467   -1.714297
