37

C     -1.854306   -2.068578   -1.213101
C     -3.812180   -0.001333   -0.523133
C     -2.337898    1.074628    1.530397
C      4.864292   -0.656568    1.194479
C      1.615425   -0.279375   -1.829971
C     -0.341850   -0.769634    0.272578
C     -1.518363   -0.944083   -0.621583
C     -2.351040    0.266237   -0.837162
C     -1.885647    1.343975    0.113698
C      1.377700    0.885143    0.970342
C      2.474390   -0.050001    1.115965
C      0.320969    0.544338   -0.058418
O      1.784086    2.199105    0.738679
O      2.250630   -1.266541    1.322569
O      3.837557    0.301414    1.043572
O      0.738017    0.629371   -1.358290
O     -0.573429    1.634543    0.069922
H     -2.720354   -2.111381   -1.844523
H     -1.264712   -2.955295   -1.069742
H     -4.418651   -0.189147   -1.414824
H     -4.265888    0.875147    0.002563
H     -3.933073   -0.873936    0.159940
H     -2.799276    0.051148    1.590434
H     -1.532197    1.212980    2.276845
H     -3.161633    1.763995    1.855009
H      4.949645   -1.033860    2.224005
H      5.814773   -0.143933    0.939663
H      4.772195   -1.516800    0.523266
H      1.812315   -0.019127   -2.913114
H      1.342830   -1.338875   -1.741864
H      2.604514   -0.148605   -1.347689
H      0.365867   -1.575603    0.027550
H     -0.572400   -0.804063    1.333348
H     -2.289917    0.619989   -1.862887
H     -2.437986    2.276910   -0.213911
H      0.824114    0.896371    1.957118
H      2.321479    2.171441   -0.099299
