42

C     -3.794540   -0.841082    0.059506
C     -0.475307    3.001308    1.250217
C      0.306347    2.624234   -1.022059
C      2.550948   -2.206771   -0.350812
C      3.104512    0.094636   -0.879292
C     -1.888302   -2.476259   -0.017376
C     -0.384604   -2.302361   -0.312452
C     -1.380494    1.133645   -0.100696
C      0.977686    1.104505    0.819845
C     -2.375061   -1.078305   -0.371383
C     -0.067770   -0.952457    0.143250
C     -1.384819   -0.257555    0.426550
C      1.054613   -0.292400    0.337004
C     -0.152190    1.889276    0.244463
C      2.378757   -0.825027    0.117292
O      3.100845   -0.646404    1.323542
H     -4.298928   -1.805831    0.298585
H     -4.366459   -0.375228   -0.774799
H     -3.868194   -0.122342    0.909515
H     -0.554048    2.516741    2.267161
H     -1.408575    3.512830    1.010894
H      0.406353    3.685639    1.317854
H     -0.538379    3.319793   -1.269794
H      0.539076    1.931686   -1.834341
H      1.152707    3.261123   -0.703009
H      2.456746   -2.901433    0.535315
H      2.002054   -2.518837   -1.229464
H      3.642345   -2.334668   -0.634899
H      3.984433   -0.484200   -1.229524
H      3.522574    0.986541   -0.371682
H      2.489949    0.314222   -1.752486
H     -2.315651   -3.248110   -0.653806
H     -1.981185   -2.617978    1.055768
H     -0.364721   -2.399312   -1.439433
H      0.101887   -3.125440    0.201078
H     -2.273302    1.654913    0.353551
H     -1.595503    1.133796   -1.197139
H      1.902682    1.671554    0.650390
H      0.827536    1.040021    1.937191
H     -2.251634   -0.942796   -1.458996
H     -1.653970   -0.350363    1.484036
H      2.871586    0.228694    1.718086
