42

C      0.312945    2.854325   -0.592692
C      3.167003    1.137625    1.010380
C      2.788119    0.130377   -1.274972
C     -2.655416   -2.383931    0.164172
C     -1.837518    1.875419    0.252012
C     -2.571845    0.568693   -0.070928
C      0.963123   -1.893796   -0.185226
C     -0.268693   -2.392438    0.487952
C     -0.789640    1.866801   -0.835645
C     -1.453594   -0.385796   -0.497127
C      1.485784   -0.768910    0.655509
C     -0.260671    0.424799   -0.703878
C      0.766494    0.463853    0.352715
C      2.212163    0.381338    0.076759
C     -1.431030   -1.498443    0.468206
O     -1.712120   -0.967807    1.749987
H      0.543024    3.010045    0.465741
H      1.197042    2.553304   -1.184463
H     -0.056009    3.846505   -0.977286
H      4.120809    0.570647    0.977705
H      3.373783    2.135944    0.562712
H      2.805056    1.171801    2.036963
H      2.120436   -0.344856   -1.988565
H      3.265964    1.050581   -1.719465
H      3.655963   -0.577082   -1.129035
H     -2.617604   -3.325454    0.735542
H     -3.588560   -1.830555    0.243245
H     -2.531701   -2.649101   -0.925796
H     -1.420562    1.818036    1.257207
H     -2.489310    2.743675    0.167142
H     -3.263735    0.797279   -0.878038
H     -3.084199    0.232480    0.832335
H      0.747749   -1.640283   -1.214837
H      1.725321   -2.699459   -0.184463
H     -0.470586   -3.425888    0.080253
H      0.010538   -2.588989    1.566069
H     -1.277709    2.014901   -1.798493
H     -1.794765   -0.797936   -1.493655
H      1.689927   -1.075190    1.716507
H      0.187411    0.252629   -1.728012
H      0.489180    1.095024    1.247247
H     -2.052566   -1.750168    2.276215
