39

C      4.043972   -0.829305   -1.050751
C      5.528334    1.115594   -0.286274
C     -5.285857    0.029385    0.265244
C     -0.978823   -0.373687    1.740210
C      1.979667    0.009573    0.713195
C      3.266272    0.737089    0.611348
C     -3.408928   -0.918708   -1.294734
C     -2.115281   -1.492794   -0.694803
C      0.813748    0.903361    0.354665
C     -2.969534    0.906909    0.170408
C      4.247168    0.369364   -0.202190
C     -3.892265    0.055038   -0.243945
C     -1.071278   -0.436611   -0.784179
C     -1.602104    0.880080   -0.377115
C     -0.503434    0.214607    0.442899
H      3.210819   -0.633442   -1.774894
H      4.931422   -1.073869   -1.661786
H      3.839782   -1.707145   -0.411039
H      6.034530    0.856035   -1.238769
H      5.373417    2.213347   -0.311074
H      6.221262    0.825690    0.533642
H     -5.386597   -0.576677    1.189945
H     -5.940893   -0.350923   -0.543593
H     -5.654727    1.047322    0.525029
H     -0.558491    0.124736    2.635553
H     -0.616027   -1.431646    1.780929
H     -2.086041   -0.438677    1.781932
H      1.823704   -0.501269    1.666640
H      2.006051   -0.793637   -0.071448
H      3.409656    1.605632    1.228256
H     -3.154382   -0.327112   -2.197030
H     -4.157656   -1.690828   -1.472741
H     -2.352145   -1.837261    0.318504
H     -1.864260   -2.407151   -1.288097
H      0.930004    1.357786   -0.645100
H      0.820913    1.743165    1.097492
H     -3.231603    1.634401    0.926150
H     -0.332443   -0.525664   -1.611239
H     -1.317954    1.717293   -1.052384
