32

C      5.370597    0.730584   -1.138781
C     -3.111927    0.016702    1.373724
C     -3.706824   -1.036030   -0.752240
C     -2.520938    1.102295   -0.731539
C      1.662956   -1.097707    1.288473
C      0.359214   -1.311997    1.382541
C      0.695581   -0.103935   -0.576299
C      4.101908    0.851600   -0.395747
C      1.917405    0.006319    0.337689
C     -0.379655   -0.356373    0.490377
C     -2.634813   -0.236838   -0.034388
O      3.884768    1.900399    0.264127
O      3.116665   -0.126283   -0.374103
O     -1.464295   -0.934763   -0.110959
H      5.735153   -0.319329   -1.187840
H      6.137454    1.343247   -0.627626
H      5.283903    1.128390   -2.178717
H     -2.869198   -0.786506    2.076225
H     -4.221060    0.094141    1.331990
H     -2.754564    1.014295    1.734422
H     -3.944978   -0.578595   -1.731786
H     -4.618963   -1.163654   -0.110641
H     -3.350898   -2.075786   -0.967399
H     -3.441207    1.675526   -0.451804
H     -1.621817    1.642512   -0.422834
H     -2.566574    0.960627   -1.838962
H      2.454381   -1.639505    1.821163
H     -0.068595   -2.079859    2.025740
H      0.769885   -1.001963   -1.216897
H      0.518430    0.819219   -1.131103
H      1.824245    0.956566    0.880079
H     -0.556239    0.606701    0.973115
