24

C      4.009494   -0.303746    0.754540
C      3.756298   -1.815767   -1.154999
C      1.840648   -0.451520   -0.296501
C      0.654759   -0.136284   -0.370175
C     -1.150703    1.340348    0.154417
C      3.221480   -0.822379   -0.186005
C     -0.743540    0.234033   -0.431852
C     -2.581118    1.685801    0.068776
C     -1.712383   -0.606795   -1.131844
C     -3.450691    0.486593    0.148149
C     -3.090370   -0.701713   -0.593326
O     -2.938817    2.618595    1.045523
O     -1.302097   -1.204677   -2.163519
O     -4.107091    0.079065   -1.077232
H      5.045098   -0.560404    0.869376
H      3.583640    0.410277    1.440151
H      4.580137   -1.321491   -1.707548
H      4.088552   -2.686333   -0.550182
H      2.985763   -2.060194   -1.882027
H     -0.417809    1.952580    0.679194
H     -2.757719    2.182169   -0.934065
H     -4.082597    0.344054    1.054718
H     -3.340242   -1.728043   -0.217234
H     -2.090692    3.065828    1.313723
