24

C      4.110903    0.182747    0.666893
C      3.082023   -0.184947    2.905943
C      1.782982   -0.017791    0.778521
C      0.635678   -0.027264    0.237555
C     -1.446577   -1.129597   -0.345802
C      3.119924    0.013799    1.397611
C     -0.648910   -0.059287   -0.354143
C     -2.783687   -1.032073   -0.987335
C     -1.110677    1.189249   -0.996310
C     -2.899203   -0.070030   -2.110609
C     -2.014371    1.067304   -2.147943
O     -3.672505   -0.516313    0.010551
O     -0.736247    2.354563   -0.558490
O     -1.896123    0.028667   -3.061285
H      5.180814    0.230977    0.888429
H      3.955754    0.347603   -0.430983
H      2.338695   -0.962498    3.171135
H      4.091799   -0.326576    3.252175
H      2.651798    0.798726    3.325309
H     -1.046514   -2.020521    0.141916
H     -3.099427   -2.053775   -1.264514
H     -3.973667    0.129423   -2.382830
H     -2.401389    2.023934   -2.517274
H     -3.221072    0.033681    0.669687
