18

C      0.811829   -1.365881    0.157571
C      1.734257   -0.257922    0.622668
C     -1.366863    1.441829   -0.405292
C     -0.274143   -0.685895   -0.621071
C     -0.023897    0.814310   -0.500208
C      0.743573    0.871231    0.783892
C     -1.602327   -0.803853    0.040107
O      0.632936    1.609167    1.727231
O     -2.158360   -1.877508    0.377553
O     -2.150290    0.461590    0.235084
H      0.430424   -1.916075    1.047538
H      1.403358   -2.041935   -0.484909
H      2.266472   -0.480799    1.542215
H      2.371329    0.021901   -0.236762
H     -1.749840    1.603180   -1.433945
H     -1.354854    2.411089    0.132836
H     -0.328762   -1.002589   -1.676327
H      0.615160    1.198162   -1.308182
