17

C     -1.605618    0.614281    0.738519
C     -0.569982    0.120883    1.416037
C     -1.549672    0.196255   -0.687492
C      1.666530   -0.082597    0.338741
C      0.306940   -0.680586    0.555892
C     -0.322395   -0.684627   -0.798443
C      1.612717    0.543819   -1.017225
O      2.329944    1.498503   -1.396775
O      0.632550   -0.152691   -1.704711
H     -2.393721    1.234330    1.136962
H     -0.433054    0.314676    2.473662
H     -1.475207    1.111223   -1.306863
H     -2.411278   -0.408397   -0.982155
H      2.435192   -0.889470    0.263680
H      1.930405    0.691051    1.063185
H      0.434154   -1.694962    0.994313
H     -0.587503   -1.731693   -1.087327
