44

C     -1.274610   -1.874810    1.240582
C      5.122485    0.915450    1.329300
C     -1.918875    2.552865    2.017055
C      4.528765    0.436501    2.478451
C     -3.296400    2.522302    2.050948
C      4.391651    0.833056    0.155398
C     -1.276298    1.682235    1.168298
C      3.252162   -0.111056    2.487945
C     -4.038103    1.668123    1.280642
C     -0.911384    0.347970   -1.840070
C      3.122201    0.292323    0.145675
C     -1.964363    0.788094    0.357939
C      2.541676   -0.183387    1.307078
C     -3.336185    0.801289    0.432759
C      0.334703   -0.444035   -2.168079
C     -0.070528   -1.897330   -2.176555
C      2.429938    0.233239   -1.062920
C      0.650383   -0.760288    0.125027
C     -2.881445   -0.787289   -1.083263
C     -0.711713   -1.317118   -0.014425
C     -1.588469   -0.233907   -0.621186
N      1.283027   -0.719816    1.298756
N     -3.819509   -0.171576   -0.461015
N     -0.597756   -2.333006   -1.079003
N      1.201605   -0.301217   -1.014977
O      0.114895   -2.700057   -3.290839
O      2.890859    0.643875   -2.153023
O     -3.058590   -1.814489   -2.042109
H     -1.275111   -2.964860    1.231180
H     -0.588483   -1.568904    2.083840
H     -2.260301   -1.432677    1.495240
H      6.116960    1.346111    1.300926
H     -1.339355    3.247035    2.644137
H      5.108180    0.506040    3.387640
H     -3.798326    3.220421    2.730914
H      4.818214    1.196836   -0.770671
H     -0.196269    1.655103    1.093626
H      2.841132   -0.469990    3.423199
H     -5.121280    1.636801    1.300424
H     -1.590583    0.421461   -2.708203
H     -0.629010    1.407004   -1.564383
H      0.801875   -0.148694   -3.103470
H     -0.159020   -3.682592   -3.242739
H     -3.848746   -2.437035   -1.933395
