68

C      6.826982    1.698425   -1.301418
C     -3.985703    0.872152   -1.557840
C     -1.532180    1.526326   -1.238591
C     -2.070666    2.072109    0.951505
C      7.691911    0.729668   -0.542860
C      6.787095   -0.364843    0.015331
C      5.786479    0.312003    0.922963
C      4.868858   -0.708366    1.522867
C      4.110147   -1.472552    0.482472
C      3.285221   -0.540275   -0.338348
C      2.507464   -1.284233   -1.398440
C      1.581763   -2.285784   -0.789928
C      0.601342   -1.618567    0.137400
C     -8.114074   -1.244396   -0.088817
C     -7.141305   -1.886212    0.642264
C     -7.850594    0.038635   -0.517136
C     -0.265154   -0.586921   -0.544896
C     -5.955524   -1.263200    0.929163
C     -6.655383    0.660349   -0.225192
C     -1.183596   -0.028459    0.519027
C     -3.398827    0.454388   -0.247019
C     -5.661694    0.039322    0.506602
C     -4.365615    0.670038    0.857834
N     -2.086881    0.991943   -0.010245
O     -4.627390    1.996677    1.177668
Br     0.000000    0.000000    0.000000
H      6.512938    2.505080   -0.625676
H      5.935616    1.185048   -1.748584
H      7.412643    2.080283   -2.166712
H     -4.848249    0.216946   -1.791204
H     -3.259005    0.665279   -2.403431
H     -4.333838    1.914864   -1.593905
H     -0.648599    2.131093   -0.932456
H     -2.283419    2.273103   -1.629780
H     -1.277758    0.781387   -1.988196
H     -2.442070    1.765015    1.949474
H     -0.996918    2.370943    1.136726
H     -2.580568    2.976287    0.643487
H      8.197052    1.192765    0.330221
H      8.411332    0.281226   -1.243384
H      7.336956   -1.111087    0.604086
H      6.221536   -0.854803   -0.822517
H      6.347418    0.870459    1.740006
H      5.215117    1.103940    0.389255
H      5.442080   -1.414786    2.188222
H      4.157387   -0.159640    2.206965
H      4.782081   -2.063845   -0.166978
H      3.420876   -2.202093    1.007402
H      2.588149    0.049516    0.283127
H      3.926238    0.229709   -0.846977
H      3.217158   -1.857623   -2.055123
H      1.965659   -0.531317   -2.010934
H      1.013049   -2.854460   -1.588923
H      2.109738   -3.064016   -0.220114
H      1.164974   -1.198794    1.007120
H     -0.033895   -2.426213    0.596199
H     -9.068837   -1.728148   -0.327564
H     -7.344083   -2.889854    0.978920
H     -8.624367    0.541790   -1.095469
H     -0.831059   -1.093127   -1.325761
H      0.388613    0.189052   -0.979865
H     -5.164967   -1.748909    1.507851
H     -6.477332    1.687772   -0.580669
H     -0.642412    0.297794    1.414459
H     -1.834951   -0.877852    0.841341
H     -3.256427   -0.666176   -0.320165
H     -4.043297    0.121721    1.805641
H     -4.927237    2.533447    0.432726
