59

C     -5.148825    1.121410   -0.948451
C     -4.855848   -0.464954    0.938500
C      0.576480   -0.987050    2.266101
C     -0.490610    2.071465    1.137955
C      5.745533    1.011389   -1.267142
C     -2.506111    2.307635   -0.527333
C      3.085509   -1.813182    0.651102
C     -1.153003    2.094072   -1.185310
C      3.776618   -1.308963   -0.666542
C      0.701031    0.616230   -0.458160
C      3.535222    1.115288   -0.418425
C     -4.268762    0.674051    0.253001
C      0.546801   -1.916543    1.119104
C     -2.866128    0.891601   -0.009389
C      1.729095   -1.767946    0.186659
C      1.560778   -0.376659   -0.389997
C     -1.725492    0.244268    0.160925
C     -0.620744   -1.907225    0.215562
C     -1.866639   -1.151863    0.631925
C     -0.601079    1.155606   -0.100748
C      2.952878   -0.145657   -1.009415
O     -0.938427   -3.276861   -0.040851
O     -2.839789   -1.843466   -0.121207
O      2.694363    0.091608   -2.357590
O      4.587105    1.665586   -1.070077
H     -6.163499    0.753361   -0.699971
H     -4.755554    0.758141   -1.889993
H     -5.209612    2.223083   -1.001304
H     -5.852274   -0.151769    1.475803
H     -5.334432   -1.178134    0.204604
H     -4.351726   -0.921803    1.780000
H     -0.391411   -0.481025    2.455787
H      1.431486   -0.281939    2.272236
H      0.732649   -1.580070    3.216540
H     -0.413034    3.100901    0.767022
H      0.422986    1.812533    1.726059
H     -1.395558    1.946744    1.723916
H      6.253636    0.671047   -0.319454
H      5.767575    0.199730   -2.007367
H      6.478125    1.807902   -1.695056
H     -2.371312    2.998641    0.309966
H     -3.254898    2.673307   -1.222731
H      3.424261   -2.868098    0.834736
H      3.426860   -1.118265    1.410058
H     -1.280877    1.548019   -2.114670
H     -0.597185    3.026541   -1.258143
H      3.593336   -2.123359   -1.423081
H      4.825651   -1.156479   -0.465536
H      1.180279    1.395127   -1.108407
H      3.954811    0.859626    0.633091
H      2.753339    1.877883   -0.138838
H     -4.537688    1.547309    0.969689
H      0.711177   -2.960622    1.551603
H      1.574400   -2.530590   -0.614158
H     -0.378791   -1.556030   -0.844902
H     -2.021803   -1.328802    1.669377
H     -0.133934   -3.661734   -0.449657
H     -2.820812   -2.766809    0.191470
H      3.123873   -0.634209   -2.897712
