36

C      3.384862    2.295911   -0.333389
C      2.600149    1.853385    0.699730
C      3.596458    1.447403   -1.405368
C     -4.027228    2.354044    0.548938
C     -3.873395    1.795879    1.814284
C      2.041799    0.573212    0.643503
C      3.054031    0.181878   -1.477983
C     -3.262119    1.885986   -0.511486
C     -2.957135    0.783726    1.983313
C      1.651053   -1.578422   -0.429795
C     -0.130504   -3.145413   -0.927101
C      2.265777   -0.255880   -0.434734
C      0.299812   -1.678217   -1.049875
C     -2.337377    0.862670   -0.335170
C     -2.197985    0.322087    0.922317
C     -1.422592    0.190665   -1.245016
C     -1.171682   -0.715626    0.805737
N     -0.694557   -0.796885   -0.526648
O      0.914336   -3.910352   -1.467858
O     -1.296718    0.449838   -2.490580
O     -0.782867   -1.429236    1.782649
H      3.817441    3.289276   -0.288558
H      2.426161    2.505396    1.543734
H      4.217059    1.820366   -2.203508
H     -4.718540    3.145835    0.331774
H     -4.487116    2.183390    2.626448
H      1.439316    0.307359    1.500766
H      3.254412   -0.450634   -2.352962
H     -3.349850    2.291895   -1.512196
H     -2.816701    0.332680    2.952049
H      1.596793   -1.936791    0.631961
H      2.310170   -2.318191   -0.942607
H     -1.022366   -3.364646   -1.522128
H     -0.218413   -3.443658    0.130649
H      0.449086   -1.497115   -2.154935
H      1.448432   -4.351812   -0.773872
