26

C     -3.789605   -0.436175   -0.667379
C     -3.768657    0.530566    0.301187
C     -2.588810   -0.970132   -1.112428
C     -2.557264    0.971651    0.832240
C     -1.380647   -0.517402   -0.569964
C      2.693115   -1.247040   -0.067912
C     -0.111506    0.952549    0.994489
C     -1.351824    0.454783    0.404630
C      3.095203    0.051674   -0.694294
C      1.723255   -0.816733    0.971520
C      1.808311    0.829177   -0.639798
N      1.076297    0.346540    0.476786
O      3.464891   -0.080587   -2.031718
O      1.556010   -1.416638    2.064758
O      1.512423    1.725210   -1.469132
H     -4.725421   -0.800169   -1.100894
H     -4.720990    0.928657    0.628736
H     -2.555352   -1.736490   -1.876542
H     -2.591454    1.730742    1.588984
H     -0.433961   -0.908821   -0.891267
H      2.251026   -1.900271   -0.832651
H      3.602675   -1.705452    0.369828
H     -0.196363    0.823976    2.113373
H     -0.109827    2.074187    0.860484
H      3.871880    0.581270   -0.098114
H      4.226595    0.534930   -2.185831
