43

C     -2.623939    1.714556    0.569792
C     -2.484072    0.844115   -1.644872
C     -0.031056   -1.696727   -0.946562
C     -1.902527   -1.676703    1.029521
C      1.452207    1.825868   -0.502777
C      0.124314    1.474436   -1.076116
C     -2.700566   -0.691001    0.284175
C     -0.512717   -1.301546    1.391335
C      3.425301    1.249531    0.735658
C      2.543637   -1.433082   -0.319910
C      2.094547    0.881330    0.166231
C      1.618969   -0.492954    0.399982
C     -0.552685    0.595362   -0.035992
C     -2.015702    0.528464   -0.217002
C      0.162109   -0.723563    0.149881
O      3.761051    2.586509    0.442933
O      2.206334   -2.757099   -0.176611
H     -2.308593    2.638030    0.053651
H     -3.721566    1.619579    0.424839
H     -2.357574    1.667786    1.625929
H     -2.683556   -0.075852   -2.222249
H     -1.784028    1.444782   -2.212702
H     -3.460370    1.385908   -1.646119
H     -0.086994   -2.716880   -0.510408
H     -0.966579   -1.581319   -1.526668
H      0.782973   -1.711165   -1.700401
H     -1.849220   -2.673224    0.495874
H     -2.401389   -1.972754    2.005566
H      1.900808    2.804013   -0.611123
H     -0.456557    2.443780   -1.055518
H      0.200627    1.020890   -2.060472
H     -3.619847   -0.451742    0.901490
H     -3.153401   -1.219165   -0.610053
H     -0.566284   -0.511484    2.192852
H      0.017233   -2.196265    1.751846
H      4.228783    0.559228    0.486665
H      3.324944    1.228233    1.860079
H      3.551906   -1.327526    0.181268
H      2.726626   -1.134603   -1.372934
H      1.804825   -0.684633    1.499721
H     -0.340096    1.130346    0.941835
H      4.016331    2.704833   -0.490298
H      2.635793   -3.318288   -0.836212
