28

C      3.693930    0.262548   -0.252496
C     -2.659695    1.127815   -0.073255
C     -2.682771   -1.232694   -0.680213
C      1.441286    1.186541   -0.608931
C      0.003578    1.027623   -0.385143
C      1.736867   -1.016268    0.440526
C      2.242072   -0.064209   -0.621494
C     -0.561849   -0.109448   -0.017338
C      0.305189   -1.261904    0.172663
C     -2.039726   -0.204025    0.194861
O     -0.204978   -2.403414    0.099763
O     -2.317978   -0.559029    1.530454
H      4.228760   -0.646658    0.051626
H      4.183636    0.695966   -1.147260
H      3.689688    1.035011    0.547166
H     -2.485322    1.386926   -1.128426
H     -2.281972    1.901972    0.632012
H     -3.758589    1.080977    0.065112
H     -2.019865   -1.576867   -1.490082
H     -3.014170   -2.137350   -0.100840
H     -3.608365   -0.835038   -1.172619
H      1.567185    1.680854   -1.612784
H      1.871872    1.912157    0.140571
H     -0.609054    1.935954   -0.544229
H      1.863757   -0.501214    1.422363
H      2.323159   -1.935927    0.473007
H      2.249933   -0.597838   -1.579497
H     -3.156577   -0.152462    1.848252
