25

C      0.538619    2.059528   -0.935343
C      3.584247   -1.234691    0.500151
C     -3.348628   -0.695528    0.445567
C     -2.326367   -1.621952    0.431484
C     -3.140845    0.615818    0.038695
C     -1.091531   -1.186640   -0.004280
C     -1.898082    1.038007   -0.395580
C     -0.876501    0.112499   -0.409733
C      1.545995    0.071679    0.020442
C      0.468452    0.561319   -0.877541
O      1.511910    0.471790    1.225169
O      0.655633    0.030134   -2.152466
O      2.556090   -0.766983   -0.355025
H     -0.069767    2.519191   -1.711524
H      1.629845    2.334502   -1.024608
H      0.221403    2.469934    0.045414
H      4.541501   -0.875131    0.051577
H      3.592748   -2.336673    0.584398
H      3.517560   -0.730616    1.490758
H     -4.353869   -0.967847    0.778205
H     -2.528533   -2.633672    0.756173
H     -3.953857    1.335039    0.054636
H     -0.263670   -1.912207   -0.022330
H     -1.784484    2.068602   -0.702520
H      1.272129   -0.726103   -2.085870
