51

C     -2.213456   -3.172499    1.930449
C      7.907972   -0.689673   -0.915647
C     -7.432479    1.633458    0.970826
C      7.025660   -1.740518   -0.841835
C      7.502621    0.577125   -0.567412
C     -6.679070    2.608897    1.559918
C     -6.841380    0.661208    0.172050
C      5.750946   -1.512801   -0.421528
C      6.213600    0.815331   -0.140962
C     -5.305249    2.597863    1.335288
C     -5.488398    0.658398   -0.043325
C      1.739778   -0.957284    0.864950
C     -1.609103   -2.514263    0.767211
C      5.346728   -0.248580   -0.074092
C     -4.720716    1.641641    0.549179
C     -0.920180    0.955356   -2.124890
C     -1.305084    0.721827   -0.656854
C      0.406429    0.554151   -2.373161
C     -0.574795   -0.519918   -0.233963
C      1.389543    0.451815   -1.265268
C      3.948448   -0.051722    0.377483
C     -3.298103    1.611364    0.302915
C      0.865194   -0.113623    0.016015
O     -1.480432   -3.119581   -0.330538
O      3.616566    1.107716    0.684497
O     -2.591407    2.521675    0.852141
O      3.066144   -1.085349    0.454486
O     -1.154640   -1.206494    0.819341
O     -0.073235    1.982223   -2.447033
O     -2.684698    0.650250   -0.491306
O      1.214734    1.219490   -0.140608
H     -2.224573   -2.477831    2.793034
H     -1.698336   -4.102007    2.236102
H     -3.250094   -3.474426    1.651314
H      8.912700   -0.869805   -1.247050
H     -8.494555    1.614301    1.124390
H      7.339025   -2.749102   -1.116308
H      8.235940    1.365663   -0.644002
H     -7.121661    3.371047    2.182806
H     -7.433558   -0.112652   -0.296176
H      5.014575   -2.315649   -0.346602
H      5.929740    1.819407    0.123915
H     -4.713842    3.385001    1.813270
H     -5.053272   -0.102387   -0.664048
H      1.654655   -0.686391    1.944698
H      1.301257   -2.004809    0.829874
H     -1.738814    0.640684   -2.805512
H     -0.859797    1.576734   -0.106612
H      0.725127    0.239168   -3.401574
H     -0.545744   -1.213447   -1.116825
H      2.399289    0.059019   -1.543024
