51

C      1.575076   -2.536575    2.944979
C     -7.982005    1.215764   -0.385600
C      7.786605   -0.015163    0.353875
C     -7.502758    0.186460   -1.184071
C     -7.126066    1.768549    0.547843
C      7.247785    1.213448    0.673815
C      6.936504   -0.968514   -0.165836
C     -6.205755   -0.259738   -1.036482
C     -5.825338    1.305626    0.680613
C      5.900243    1.446080    0.467801
C      5.602681   -0.730626   -0.367053
C     -1.789087   -0.061670    1.144242
C      1.071074   -2.160178    1.600697
C     -5.360823    0.287803   -0.113203
C      5.053818    0.492650   -0.051151
C      0.916232    0.243757   -2.339125
C      1.374262    0.282170   -0.913297
C     -0.490085    0.433489   -2.474141
C      0.434301   -0.545936   -0.097253
C     -1.298570    0.791456   -1.252360
C     -3.979447   -0.218272    0.013574
C      3.647345    0.806056   -0.241178
C     -0.897424    0.215340   -0.016171
O      0.773142   -3.074542    0.805604
O     -3.569308   -1.150718   -0.720605
O      3.231140    1.940010    0.071413
O     -3.117230    0.331473    0.946852
O      0.919174   -0.841114    1.196019
O      0.426997    1.359603   -2.968994
O      2.726684   -0.088266   -0.755029
O     -0.761276    1.663374   -0.311596
H      1.255353   -1.833496    3.729197
H      2.697056   -2.575063    2.937924
H      1.228313   -3.548365    3.228451
H     -8.999946    1.572066   -0.495403
H      8.852480   -0.209122    0.513300
H     -8.138720   -0.269655   -1.922423
H     -7.533716    2.568401    1.152343
H      7.922486    1.953691    1.080487
H      7.393149   -1.930228   -0.408813
H     -5.883288   -1.063531   -1.683480
H     -5.193928    1.760354    1.415519
H      5.480076    2.430007    0.726452
H      4.939535   -1.487396   -0.777101
H     -1.822426   -1.187574    1.246744
H     -1.375523    0.278173    2.114976
H      1.402211   -0.566842   -2.957771
H      1.243648    1.348467   -0.563594
H     -1.053743   -0.169416   -3.216110
H      0.212960   -1.472351   -0.687997
H     -2.343868    1.070087   -1.486877
