60

C      3.365934    1.563072    1.178981
C      3.892319    1.286249   -1.179648
C     -4.171547    0.078578   -1.852940
C      0.281052   -2.859041    0.595494
C     -3.267889   -1.428144    0.465385
C     -2.028736   -1.726112   -0.322937
C      2.667836   -1.673624    0.531745
C     -0.221500    1.461437    0.725824
C     -2.086161    1.135112   -0.921722
C     -3.589392    0.024973    0.595160
C     -0.888808   -0.791773   -0.070020
C      1.490486   -0.711872    0.762220
C      3.824388   -0.703843    0.256812
C      0.921943    1.523379   -0.252845
C     -2.411477    0.636891    1.339703
C      3.227261    0.644307    0.022514
C     -3.549142    0.783770   -0.698885
C      0.183474   -1.351703    0.826160
C     -1.345059    0.580241    0.302573
C      1.757983    0.302894   -0.288940
O      4.537020   -1.097118   -0.871486
O      0.470962    1.922925   -1.529154
O     -2.652688    1.939925    1.718282
O     -4.291346    1.969521   -0.490160
O     -0.319710   -1.244523    2.148215
O      1.849309   -0.280483   -1.573694
H      3.788604    2.561238    0.892595
H      4.145232    1.122730    1.868059
H      2.480036    1.723965    1.781776
H      4.339422    0.546092   -1.867395
H      4.752457    1.881599   -0.778670
H      3.236857    2.023083   -1.685599
H     -3.428537   -0.000759   -2.690652
H     -4.604114   -0.912654   -1.609961
H     -5.028015    0.655946   -2.311715
H      0.205892   -3.134611   -0.455711
H      1.280086   -3.253152    0.948052
H     -0.442396   -3.422490    1.256631
H     -4.101488   -2.011332    0.033484
H     -3.124176   -1.827918    1.499965
H     -1.780859   -2.801326   -0.139638
H     -2.354722   -1.719602   -1.408302
H      2.946086   -2.201972    1.462102
H      2.530103   -2.299951   -0.343953
H      0.161404    1.112627    1.684579
H     -0.590525    2.490052    0.862924
H     -1.789337    0.585329   -1.845988
H     -1.915679    2.214926   -1.006060
H     -4.533360    0.131487    1.127706
H     -0.393536   -0.668920   -1.082626
H      1.763593   -0.225265    1.748013
H      4.526821   -0.641235    1.086452
H      1.549274    2.380108    0.079957
H     -2.258526    0.042598    2.233968
H      4.198188   -1.969795   -1.195679
H      0.553681    1.232864   -2.198427
H     -2.619954    2.602410    1.013109
H     -3.955174    2.679214   -1.111430
H      0.468891   -1.141513    2.761661
H      2.347259    0.261189   -2.200826
