25

C     -2.013320    1.146890    0.128725
C      1.994783   -0.045875   -0.262419
C      1.474371    0.298877    1.073729
C     -0.545852   -1.042915    1.253553
C      1.086264    0.204923   -1.408357
C     -0.416349   -1.420993   -0.223316
C     -0.001089    0.386659    1.211032
C     -0.337373   -0.109311   -0.953702
N     -0.613774    0.932308    0.046051
O     -1.239488   -0.098769   -1.987134
H     -2.266761    2.079534    0.668072
H     -2.395334    1.308901   -0.922102
H     -2.596477    0.300930    0.520984
H      2.325261   -1.123962   -0.316028
H      2.947430    0.529342   -0.456806
H      1.829042   -0.495565    1.796866
H      1.956327    1.235449    1.441188
H      0.133040   -1.626148    1.892073
H     -1.575417   -1.091356    1.607118
H      1.095962    1.310676   -1.613491
H      1.376187   -0.340878   -2.303462
H     -1.325717   -1.997739   -0.489879
H      0.474541   -2.057983   -0.353427
H     -0.242885    0.949995    2.122649
H     -1.123373    0.767009   -2.471916
