49

C     -5.737086    1.952953    1.807963
C      5.148697    1.526341   -2.335593
C     -3.201523   -0.409373   -1.834403
C      3.559530   -1.632213    1.204144
C     -4.536082   -0.688073   -2.039240
C      4.919737   -1.417868    1.454436
C     -1.328109    0.681336   -0.574891
C     -3.725436    0.904489    0.069327
C      3.706364   -0.168796   -0.666337
C      0.801307   -0.287635    2.087638
C     -2.765039    0.389696   -0.780474
C      2.944742   -1.011042    0.145432
C     -0.749371   -0.397228    0.317719
C      0.701610   -0.200882    0.592821
C     -5.495631   -0.175692   -1.192823
C      5.646657   -0.581410    0.636977
C     -5.058459    0.614768   -0.151039
C      5.045647    0.057819   -0.440687
C      1.518330   -1.187169   -0.164638
C     -1.387655   -0.411943    1.646404
O     -6.859749   -0.446916   -1.383130
O      6.993779   -0.394816    0.918713
O      1.133654   -2.512899    0.033759
O     -2.544668   -0.864019    1.900219
O     -6.009155    1.132223    0.701233
O      5.793320    0.897710   -1.254819
O     -0.497366    0.151718    2.543958
H     -4.973850    1.563875    2.486214
H     -5.456507    2.986188    1.517549
H     -6.685729    2.036974    2.390045
H      4.945816    0.770300   -3.131161
H      5.889233    2.243285   -2.785480
H      4.225284    2.066886   -2.039763
H     -2.423712   -0.803763   -2.491306
H      3.034886   -2.298796    1.864799
H     -4.822681   -1.312039   -2.869700
H      5.357341   -1.923086    2.291556
H     -0.755469    0.682323   -1.523688
H     -1.211470    1.664778   -0.064326
H     -3.423413    1.540747    0.912754
H      3.201444    0.315497   -1.502201
H      0.991454   -1.312617    2.465987
H      1.523879    0.418285    2.539300
H     -0.883868   -1.390137   -0.194300
H      1.057591    0.819851    0.300943
H      1.314358   -0.999261   -1.254332
H     -7.520230   -0.047313   -0.735092
H      7.592628    0.202117    0.366706
H      1.004968   -2.745175    0.974452
