45

C     -5.939040    0.323819    0.569806
C     -4.226239    1.832924   -0.285794
C     -0.710866   -2.121402    0.397744
C      7.279575    0.633580    0.268556
C      1.151431    0.045981    1.013148
C      1.732444    0.244807   -1.335677
C      2.597913    0.212399    1.307290
C      3.246018    0.143276   -1.073817
C     -3.809715   -0.626075   -0.113622
C     -1.338231   -0.012662   -0.683446
C     -4.814982    0.444918   -0.453291
C     -0.291827   -1.114502   -0.685849
C      1.076344   -0.639684   -0.337591
C      3.529424    0.254581    0.359420
C     -2.640303   -0.677832   -0.997313
C      4.910127    0.422358    0.794997
O     -2.710653   -1.293714   -2.052464
O      5.220092    0.527591    2.024823
O      5.924399    0.471385   -0.124381
H     -5.504825   -0.098786    1.511772
H     -6.355689    1.328883    0.840098
H     -6.748610   -0.356756    0.207396
H     -3.503959    2.108474   -1.057516
H     -3.813736    1.911699    0.761904
H     -5.072695    2.547088   -0.329343
H     -1.409792   -2.868065    0.025265
H      0.205976   -2.664391    0.744398
H     -1.098046   -1.498680    1.239065
H      7.803257   -0.343592    0.275016
H      7.753055    1.341249   -0.454249
H      7.254082    1.056728    1.297503
H      0.615375   -0.493811    1.799267
H      0.741325    1.091986    0.920854
H      1.476580    1.306928   -1.078533
H      1.501561    0.028936   -2.381889
H      2.888757    0.298509    2.339572
H      3.806650    0.891851   -1.666010
H      3.529833   -0.882400   -1.403982
H     -4.376836   -1.603544   -0.104392
H     -3.539325   -0.482089    0.967366
H     -1.358577    0.457489    0.316448
H     -1.158158    0.735191   -1.488454
H     -5.267692    0.330584   -1.447263
H     -0.267479   -1.659847   -1.628593
H      1.713058   -1.555383   -0.233010
