37

C     -2.195165    3.569729   -0.810874
C     -3.269942   -2.917846    0.336646
C     -2.675297   -2.494352    1.523273
C     -3.010906   -2.318735   -0.856610
C     -1.786080   -1.426774    1.506450
C     -2.117431   -1.249130   -0.860793
C      3.733019   -0.472096   -0.203073
C      3.685089   -0.182881    1.076194
C     -1.544910    2.498754   -0.032906
C     -1.529073   -0.830159    0.313480
C      2.957309    0.255547   -1.205116
C      2.828400    0.899654    1.533079
C      0.722254   -0.194128   -0.325579
C     -0.578686    0.327641    0.226367
C      1.712424    0.859828   -0.639683
O     -1.317016    2.744066    1.199740
O      2.693828   -0.524287   -2.341501
O      2.761764    1.202669    2.748567
O      1.210980   -1.122693    0.574746
O     -1.187831    1.278593   -0.583321
O      2.091500    1.574810    0.545559
H     -2.977939    3.075251   -1.457873
H     -2.749389    4.262590   -0.149635
H     -1.461377    4.136251   -1.424554
H     -3.962846   -3.750900    0.354592
H     -2.896429   -2.985029    2.456271
H     -3.443221   -2.606559   -1.802023
H     -1.321288   -1.090414    2.411920
H     -1.900126   -0.761614   -1.799630
H      4.401444   -1.309920   -0.497229
H      4.287204   -0.753935    1.795736
H      3.568276    1.141956   -1.588138
H      0.494373   -0.767262   -1.262310
H     -0.471645    0.731300    1.251465
H      1.270215    1.612775   -1.359519
H      3.050960   -1.426824   -2.147313
H      0.927557   -0.985877    1.493597
