42

C      4.353942    0.469797    0.187446
C     -3.511871    0.748122   -0.053273
C      1.491254   -2.122258    0.393226
C     -1.260656    1.187972   -1.404922
C     -0.585948   -1.367647   -1.248303
C      3.146620    0.428656    0.669467
C     -2.278649   -0.494818    1.629378
C     -1.221121   -1.413869    1.104764
C      0.026329    1.717160    0.586148
C      1.274158    1.624035   -0.271228
C     -2.263387    0.745879    0.799048
C      1.015066   -0.678516    0.508122
C     -0.999529    0.735544    0.002354
C     -0.409845   -0.635296    0.088650
C      1.916800    0.274078   -0.189511
O      2.368522   -0.179923   -1.424091
H      5.217583    0.580731    0.819210
H      4.508650    0.391388   -0.876931
H     -3.680359    1.695875   -0.580483
H     -4.372096    0.646948    0.668801
H     -3.582952   -0.149524   -0.703346
H      2.603804   -2.183068    0.400891
H      1.083041   -2.684706    1.275498
H      1.075592   -2.625719   -0.503342
H     -1.207591    2.310797   -1.409101
H     -0.493022    0.849190   -2.129991
H     -2.238739    0.923781   -1.799754
H     -1.419628   -0.944176   -1.835579
H     -0.878673   -2.442150   -1.058936
H      0.323798   -1.297395   -1.869903
H      3.001550    0.508633    1.745086
H     -2.148874   -0.249405    2.707465
H     -3.255009   -1.049043    1.569245
H     -0.591111   -1.717799    1.989805
H     -1.623029   -2.359507    0.700194
H     -0.354434    2.755309    0.466722
H      0.283569    1.476789    1.617595
H      1.953894    2.443340    0.106506
H      1.086253    1.856647   -1.322474
H     -2.289490    1.671533    1.410013
H      1.050124   -0.441203    1.609243
H      2.885463   -1.006181   -1.264733
