12

C     -1.734015    0.388295   -0.009838
C      1.857594    0.076714    0.162052
C     -0.404275   -0.366944   -0.071654
Cl    -3.044264   -0.744250   -0.389722
F     -1.700846    1.462852   -0.877689
F      2.628839    0.713337   -0.817790
F      2.501511    0.309908    1.361406
F     -0.266215   -0.866008   -1.352532
F     -0.408832   -1.369111    0.857667
O      0.583829    0.598490    0.181650
H     -1.873655    0.822477    1.010105
H      1.860329   -1.025760   -0.053655
