26

C     -3.109650   -0.062238    0.758326
C      3.131022   -0.700634    1.049377
C     -1.241463   -1.165424   -0.370454
C      0.265365   -1.389531   -0.254217
C     -1.129271    1.289349    0.041877
C     -1.589772   -0.040108    0.562606
C      2.108839    0.203865    0.453473
C      0.937285   -0.078538   -0.079501
C      0.250280    1.131382   -0.550686
C      2.239345    1.648658    0.355194
O      3.220468    2.340271    0.750608
O      1.112107    2.172361   -0.246144
H     -3.538850    0.896722    0.405035
H     -3.317765   -0.260589    1.827142
H     -3.584336   -0.857300    0.153067
H      3.816352   -1.110643    0.259321
H      2.633822   -1.490649    1.622284
H      3.785532   -0.114162    1.730584
H     -1.748432   -2.088275    0.013988
H     -1.507827   -0.951975   -1.421651
H      0.620089   -1.936266   -1.150783
H      0.473221   -1.984532    0.672120
H     -1.837375    1.718393   -0.704143
H     -1.065013    2.009639    0.888882
H     -1.073954   -0.223762    1.531229
H      0.149983    1.043985   -1.656389
