25

C     -2.063008    0.426329    0.880767
C     -1.690368   -0.968549    1.268400
C      1.865056    0.391271   -0.433492
C     -1.439013    0.642180   -0.481369
C      0.803252   -0.184561   -1.258985
C      2.386107   -0.378509    0.695116
C     -0.505681   -0.517521   -0.678634
N     -0.479581   -1.269909    0.529905
O     -0.815743    1.879731   -0.573447
O      0.583751    0.558943   -2.449387
O      2.035702   -1.525998    0.944859
O      3.322648    0.226543    1.521283
H     -3.175210    0.485288    0.854260
H     -1.718367    1.170817    1.624538
H     -2.496193   -1.714043    1.094900
H     -1.437134   -0.988380    2.345840
H      1.664226    1.415236   -0.041279
H      2.759678    0.556626   -1.118233
H     -2.268419    0.651154   -1.216775
H      1.214328   -1.161242   -1.674723
H     -1.017747   -1.189322   -1.437723
H     -0.525373   -2.319979    0.344397
H     -1.485463    2.572338   -0.714018
H      0.729674    1.526967   -2.297795
H      3.752879   -0.285408    2.271594
