34

C     -1.566813   -1.333810   -1.133978
C     -0.200172   -0.181335    2.180675
C      2.613289   -2.087628   -0.327699
C      1.353434   -1.680465    0.097441
C      3.528864   -1.149587   -0.763035
C     -0.576935    1.543214    0.536596
C     -1.268698    1.825051   -0.749818
C      1.889767    0.550879   -0.334524
C     -2.799384    0.248674    0.215877
C     -1.560052   -0.639737    0.161784
C      0.960827   -0.363407    0.106300
C      3.162948    0.170597   -0.765620
C     -0.348519    0.051112    0.623921
N     -2.672364    1.456283   -0.567513
O      4.076927    1.112892   -1.199753
H     -2.341937   -0.888131   -1.841310
H     -1.950952   -2.398741   -1.054794
H     -0.621018   -1.391515   -1.670002
H     -1.156424    0.158049    2.586941
H      0.062697   -1.219729    2.290123
H      0.569634    0.541249    2.511923
H      2.921851   -3.129925   -0.340681
H      0.626730   -2.393342    0.449001
H      4.536267   -1.443041   -1.103788
H      0.271249    2.168704    0.793551
H     -1.335283    1.766914    1.361580
H     -0.912878    1.211118   -1.605850
H     -1.213751    2.918113   -0.947565
H      1.679309    1.581780   -0.363694
H     -3.645054   -0.347592   -0.174654
H     -3.039707    0.461028    1.275944
H     -1.798194   -1.438871    0.945642
H     -3.085846    2.233833    0.012429
H      3.840190    2.087365   -1.205449
