34

C      1.029460    2.032906    0.681756
C      0.438773    0.792416   -2.065856
C     -3.080154    1.177434   -0.071161
C     -1.787589    1.117533   -0.549361
C     -3.568580    0.195182    0.754543
C      0.966308   -1.348126   -1.064306
C      2.392383   -1.566391   -0.604657
C     -1.422917   -0.908009    0.605107
C      1.862580   -0.202490    1.312405
C      1.440936    0.702720    0.156590
C     -0.924023    0.069061   -0.221670
C     -2.735731   -0.847368    1.090304
C      0.443475    0.023406   -0.736038
N      2.616414   -1.272155    0.764761
O     -3.179404   -1.866850    1.920695
H      1.961574    2.509266    1.114917
H      0.707934    2.686271   -0.126202
H      0.319552    1.975049    1.531440
H      0.491385    1.865255   -1.955264
H      1.300725    0.437273   -2.661445
H     -0.512305    0.456100   -2.577141
H     -3.711060    2.002082   -0.344337
H     -1.406935    1.898465   -1.204172
H     -4.594189    0.222665    1.148731
H      1.018959   -1.533427   -2.181333
H      0.378780   -2.183761   -0.687269
H      3.047333   -0.973473   -1.276542
H      2.615332   -2.635753   -0.768208
H     -0.789733   -1.737405    0.886477
H      1.016105   -0.495383    1.951311
H      2.540000    0.435899    1.953863
H      2.374208    0.855520   -0.444716
H      2.869599   -2.041932    1.387311
H     -4.119198   -1.841979    2.279465
