39

C      3.072195    0.382620   -1.239900
C      3.098364    1.255869    1.008655
C     -1.232548    3.438408   -0.501407
C     -2.145336   -2.815242   -0.161161
C     -2.177824    1.506851    0.883240
C      0.270805   -2.580871   -0.490820
C     -2.277289    0.095881    0.337798
C      1.287059   -1.511410   -0.922613
C      0.060853    1.388762    0.062528
C      2.554340    0.338875   -0.030746
C     -1.038537    2.122899    0.113509
C     -1.035353   -1.824759   -0.422783
C      1.454717   -0.613826    0.253521
C     -1.040324   -0.728951    0.609270
C      0.197684    0.062571    0.706525
H      3.872920    1.078313   -1.444510
H      2.737819   -0.241174   -2.035062
H      2.822090    2.302513    0.862356
H      2.668620    0.919718    1.993980
H      4.195811    1.154995    1.123887
H     -1.998762    3.996674    0.103501
H     -0.305812    4.026042   -0.443180
H     -1.636527    3.392407   -1.534995
H     -1.738082   -3.790405    0.180872
H     -2.730955   -3.012077   -1.097363
H     -2.786672   -2.419517    0.633592
H     -3.133105    1.999815    0.675495
H     -1.886984    1.490755    1.935489
H      0.568387   -3.030172    0.458383
H      0.187468   -3.289227   -1.333301
H     -3.137910   -0.417288    0.805096
H     -2.494092    0.167608   -0.751139
H      0.868597   -0.993775   -1.811088
H      2.247318   -2.022858   -1.113158
H      0.902075    1.785625   -0.481076
H     -1.202050   -1.383095   -1.428702
H      1.819923   -1.266975    1.102104
H     -1.248733   -1.261790    1.588239
H      0.359852    0.296212    1.804962
