25

C      1.867595   -0.686141    0.577540
C      2.239798    0.612228   -0.148045
C      0.744987   -1.306664   -0.184690
C     -1.985613    0.112249    0.712990
C      1.048215    1.518796    0.063518
C     -1.297789    1.402778    0.310646
C     -0.230422   -0.360746   -0.770228
C     -1.680251   -0.764123   -0.467777
N     -0.155722    0.983948   -0.420600
O     -1.808182   -2.105550   -0.228146
H      1.631849   -0.453210    1.629149
H      2.802766   -1.307930    0.537331
H      2.337326    0.394410   -1.224150
H      3.130033    1.082092    0.267749
H      1.219349   -1.974069   -0.965373
H      0.245941   -2.042258    0.513571
H     -1.540674   -0.236860    1.656020
H     -3.067418    0.324020    0.795645
H      0.964649    1.655753    1.181199
H      1.271332    2.508728   -0.360571
H     -1.964520    1.971011   -0.398086
H     -1.014393    2.028672    1.159780
H     -0.153562   -0.447161   -1.895855
H     -2.334559   -0.407983   -1.307603
H     -2.270737   -2.501991   -1.034014
