48

C     -2.517560    3.295392   -0.216811
C     -2.611783    1.853655   -0.633707
C      5.850103    0.028698   -0.510329
C      5.526513    0.078181   -1.851019
C      4.869349   -0.187212    0.455055
C      4.215029   -0.086426   -2.265936
C      2.028935   -0.732842    2.156216
C     -3.607029   -0.870925   -0.481631
C      0.861708    0.234176    2.387437
C     -3.651537   -2.361014   -0.715369
C     -1.080877   -0.824443   -0.585740
C     -0.847673    1.242921    1.032943
C     -2.254525    0.972145    0.543748
C     -2.333647   -0.496087    0.183178
C      3.570731   -0.348835    0.025425
C      2.421614   -0.569744    0.715762
C      3.222272   -0.303100   -1.314537
C      0.040861   -0.902343    0.426957
C      1.367104   -0.660250   -0.193034
N      1.881807   -0.495802   -1.402553
N     -0.228003   -0.000635    1.499716
O     -4.843897   -2.747894   -1.334424
H     -3.002082    3.503787    0.748044
H     -2.999041    3.967316   -0.965065
H     -1.468910    3.645019   -0.131570
H     -3.673297    1.655298   -0.885466
H     -1.990375    1.683230   -1.514405
H      6.870170    0.154237   -0.153376
H      6.329528    0.248492   -2.552796
H      5.073704   -0.232588    1.495958
H      3.948575   -0.049493   -3.317708
H      2.831183   -0.458110    2.841448
H      1.614135   -1.747750    2.338851
H     -4.509882   -0.578694    0.070012
H     -3.677219   -0.415502   -1.514943
H      0.508990    0.015618    3.430747
H      1.228125    1.277019    2.406874
H     -3.623962   -2.863939    0.288339
H     -2.835588   -2.763094   -1.315296
H     -1.148376   -1.713804   -1.213500
H     -0.807203    0.040825   -1.261879
H     -0.908092    1.899814    1.945241
H     -0.229723    1.776418    0.309329
H     -2.995576    1.158925    1.339133
H     -2.259267   -1.036658    1.174113
H      0.048708   -1.931636    0.830100
H      1.315807   -0.515588   -2.286088
H     -5.519827   -2.836757   -0.608957
