67

C      6.519807    0.746302   -1.723153
C      7.347087    1.603436    0.410829
C     -0.811330   -2.346218   -1.496764
C     -0.588968    0.013230   -1.911119
C     -3.357928   -1.032555    3.053632
C     -5.919314    2.132126   -0.040687
C      1.511566    1.084860   -0.055338
C      2.805651    1.520449   -0.109102
C     -5.567540    0.966265   -0.967713
C      6.536282   -0.663704    0.323770
C     -4.655373    2.369966    0.789349
C      5.769242   -1.657475    0.728156
C     -3.407061   -0.319918   -1.196073
C     -0.960067   -0.467837    1.533090
C     -2.440007    1.414893    0.760488
C      1.143511   -0.217201    0.246480
C      3.822693    0.629193    0.148716
C     -2.335341   -0.863263   -0.320078
C      2.171801   -1.099555    0.502781
C      3.498508   -0.670979    0.451994
C      0.321554   -2.332523    0.733397
C     -4.621865   -0.256209    0.986967
C      6.304764    0.672956   -0.223669
C     -0.976382   -0.953595   -0.860216
C     -4.344868    0.447790   -0.320076
C     -2.249202   -0.067674    0.963469
C     -0.107898   -0.955670    0.377556
N      1.603538   -2.366649    0.791823
N     -3.421951   -0.478155    1.727463
N     -3.647072    1.682642    0.046574
O     -0.538687   -3.430298    0.970183
O     -5.756980   -0.590142    1.350868
O      4.397362   -1.681552    0.734127
O      5.053428    1.219474    0.054681
H      5.603472    0.503668   -2.293824
H      7.353334    0.085706   -2.004839
H      6.737890    1.829545   -1.940819
H      6.935078    2.641524    0.370517
H      8.275586    1.555638   -0.185650
H      7.478076    1.346626    1.471588
H     -1.585101   -3.048207   -1.091355
H      0.170589   -2.785535   -1.246836
H     -0.976585   -2.306031   -2.584144
H     -0.956170    1.042762   -1.790158
H      0.511633    0.023049   -2.023971
H     -0.966631   -0.378119   -2.892254
H     -3.213219   -2.127581    2.949208
H     -4.322377   -0.858707    3.573986
H     -2.513601   -0.534559    3.582447
H     -6.220474    3.021486   -0.605377
H     -6.676831    1.758972    0.662388
H      0.716172    1.784996   -0.256265
H      2.999291    2.563783   -0.355080
H     -5.311522    1.395537   -1.934019
H     -6.399177    0.232429   -1.008676
H      7.602374   -0.914958    0.429589
H     -4.462566    3.455826    0.908018
H     -4.731129    1.921638    1.793141
H      6.261575   -2.557875    1.097880
H     -3.948587   -1.092640   -1.782527
H     -2.955546    0.386765   -1.922766
H     -0.441389    0.454402    1.927999
H     -0.996925   -1.168667    2.374644
H     -1.598533    1.944103    0.329412
H     -2.577552    1.841235    1.792566
H     -2.665164   -1.903109   -0.020488
H     -0.224955   -4.166108    1.600462
