56

C      0.420605    1.953477    2.990102
C      5.908683   -3.741168   -2.191146
C      4.729689    1.615954   -2.798905
C     -6.409314    1.970423   -1.323325
C     -4.766395   -2.598326    1.340459
C      1.619528   -0.004647    0.995432
C      2.948850   -2.011626    0.299070
C      0.253838   -0.055079    0.393521
C      3.915899   -2.565283   -0.518515
C     -1.578456    2.919592    0.004969
C     -0.922126    3.084536    1.359374
C      3.308068    0.061566   -0.785486
C     -3.804823    1.848726   -0.323476
C     -2.964090   -0.383254    0.991272
C      2.641556   -0.681395    0.163353
C     -2.526369    1.795256    0.164433
C     -2.077009    0.676416    0.833464
C     -0.695595    0.667280    1.334538
C      4.589022   -1.826796   -1.472694
C      4.274099   -0.483862   -1.604813
C     -4.691037    0.778336   -0.160620
C     -4.260780   -0.343083    0.502845
N     -0.134684    1.934581    1.646709
O      5.560150   -2.365804   -2.299507
O      4.950731    0.257823   -2.563708
O     -5.991695    0.800916   -0.642644
O     -5.136279   -1.429593    0.677003
H      1.430791    2.358668    3.047534
H      0.340009    0.938684    3.431926
H     -0.242687    2.598129    3.618038
H      5.119716   -4.350312   -2.689445
H      5.992714   -4.086797   -1.158057
H      6.853866   -3.959684   -2.718100
H      4.528674    2.205763   -1.874147
H      3.894065    1.694250   -3.534222
H      5.679532    2.029300   -3.242486
H     -6.393876    2.837370   -0.626703
H     -5.660955    2.195820   -2.116983
H     -7.432575    1.856217   -1.746195
H     -3.883120   -3.107998    0.922621
H     -5.653329   -3.263232    1.370905
H     -4.582525   -2.315764    2.417609
H      1.587415   -0.515920    1.991743
H      1.913333    1.058267    1.093120
H      2.415934   -2.578804    1.048426
H      0.227721    0.364040   -0.623756
H     -0.134473   -1.097976    0.309298
H      4.155730   -3.614683   -0.408731
H     -2.108921    3.872654   -0.276622
H     -0.813753    2.716954   -0.784378
H     -1.749064    3.143047    2.113330
H     -0.269900    3.978253    1.399585
H      3.086841    1.123517   -0.918958
H     -4.154374    2.727882   -0.848005
H     -2.604780   -1.251059    1.514243
H     -0.704070    0.043976    2.276706
