67

C      6.424326    1.625339    0.116328
C      7.700865    0.081877   -1.351015
C     -0.576793    1.703088    1.778325
C     -0.716511    1.863162   -0.654703
C     -2.956346   -3.112535    1.061463
C     -6.254344    0.850117   -1.381157
C      1.693415    0.203672   -1.453220
C      3.063216    0.235522   -1.749643
C     -5.926535    0.736560    0.101312
C      6.607477   -0.709985    0.671428
C     -4.971845    0.458053   -2.117488
C      5.718964   -1.174121    1.528710
C     -3.447154    1.184200    0.272013
C     -0.923241   -1.404115   -0.193268
C     -3.025455   -0.812449   -1.446747
C      1.226061   -0.166340   -0.215659
C      3.990849   -0.110278   -0.790021
C     -2.263036    0.375969    0.656904
C      2.179608   -0.511493    0.734589
C      3.539168   -0.485009    0.456748
C      0.226922   -0.793499    1.817816
C     -4.379661   -1.001416    1.034578
C      6.472350    0.211829   -0.478792
C     -0.925369    0.930615    0.483085
C     -4.582545    0.153557    0.118482
C     -2.304527   -0.921691   -0.110964
C     -0.070161   -0.314496    0.421676
N      1.484483   -0.873929    1.915188
N     -3.218411   -1.767357    0.701136
N     -4.379419   -0.452134   -1.212645
O     -0.753622   -1.081973    2.788161
O     -5.155154   -1.240321    1.973089
O      4.343932   -0.859281    1.522196
O      5.315526   -0.023332   -1.252385
H      7.455550    1.858571    0.477446
H      5.702745    1.662838    0.938552
H      6.210559    2.299267   -0.723003
H      7.474434    0.076613   -2.420281
H      8.224667   -0.893712   -1.141401
H      8.424585    0.875679   -1.072147
H      0.026958    2.578666    1.458226
H     -1.528346    2.107464    2.150109
H     -0.033571    1.087833    2.493610
H     -0.999443    1.410683   -1.617279
H     -1.215040    2.852372   -0.504285
H      0.361684    2.119932   -0.711711
H     -1.974893   -3.187220    1.558607
H     -3.725020   -3.433813    1.779329
H     -2.934196   -3.771136    0.155213
H     -6.601007    1.847211   -1.665822
H     -7.015284    0.053966   -1.578753
H      1.028997    0.476844   -2.267853
H      3.414606    0.529343   -2.727936
H     -5.956161    1.787254    0.494110
H     -6.699065    0.151047    0.651529
H      7.608056   -1.069168    0.845372
H     -4.414612    1.365851   -2.344073
H     -5.298779   -0.096423   -3.031648
H      6.062242   -1.853902    2.306147
H     -3.726306    1.854114    1.108668
H     -3.367411    1.760758   -0.640537
H     -0.697544   -2.396117    0.193988
H     -0.627436   -1.418295   -1.285457
H     -2.490624   -0.282286   -2.220494
H     -3.059206   -1.892397   -1.804698
H     -2.397181    0.154612    1.763342
H     -0.390989   -1.528024    3.637609
