33

C     -3.878579   -1.548112   -0.267430
C      5.117288   -1.155950    0.600977
C      3.290416    0.610249   -0.539489
C      2.396834    1.480632   -1.101782
C     -1.543889    0.553026    1.183237
C     -2.997761    0.315924    0.828244
C      1.462708   -0.604525    0.411033
C     -1.658286   -0.755134   -0.736863
C      2.831627   -0.430147    0.214942
C      0.539236    0.257762   -0.143970
C      1.048318    1.295665   -0.899363
C     -1.152603    1.614886   -1.004680
C     -0.907198    0.428284   -0.185613
N     -0.030571    2.077432   -1.389558
N     -3.032609   -0.391292   -0.416631
O     -2.429422    2.132974   -1.299300
O      3.732451   -1.338881    0.803756
H     -3.348398   -2.475748   -0.048965
H     -4.515336   -1.645113   -1.182585
H     -4.614670   -1.350776    0.565337
H      5.391973   -1.333388   -0.464214
H      5.730053   -1.771882    1.255264
H      5.379804   -0.088776    0.828544
H      4.348881    0.768201   -0.707466
H      2.777194    2.316278   -1.708407
H     -1.378855    1.543332    1.639786
H     -1.203910   -0.285004    1.814788
H     -3.540829   -0.209950    1.640935
H     -3.443299    1.330382    0.646694
H      1.091735   -1.418319    1.001771
H     -1.494583   -0.934852   -1.798851
H     -1.399949   -1.627326   -0.115697
H     -2.567770    2.640149   -2.181425
