31

C      4.525333    0.791772   -0.358366
C      2.182654    1.035778    0.431711
C     -2.757404    1.508285   -0.170662
C     -4.095300   -0.369844   -0.605117
C      1.977096   -1.753154    0.026547
C      3.291267    0.055153    0.179110
C     -3.997393    0.970702   -0.410575
C      0.861694    0.421119    0.170342
C     -1.633538    0.695850   -0.129029
C      0.750996   -0.877343   -0.020244
C     -2.989676   -1.233164   -0.572830
C     -1.765691   -0.672781   -0.331990
C     -0.339901    1.268775    0.122948
C     -0.564988   -1.484513   -0.279862
O     -5.124631    1.799828   -0.450410
O     -3.156033   -2.560573   -0.774833
O     -0.207739    2.503567    0.307808
O     -0.570491   -2.747184   -0.451415
O      2.961966   -0.991606   -0.646530
H      4.371247    1.121615   -1.400060
H      4.620063    1.714217    0.262112
H      5.413188    0.136892   -0.243179
H      2.267690    1.923128   -0.252934
H      2.195440    1.388534    1.473582
H     -2.620808    2.564487   -0.009366
H     -5.058746   -0.820131   -0.795903
H      2.253984   -1.938020    1.064809
H      1.781511   -2.655910   -0.570060
H      3.634457   -0.391701    1.148653
H     -5.604146    1.945017    0.422034
H     -2.602102   -3.348796   -0.806772
