16

C      1.315969   -1.247868    0.284468
C      1.826231    0.130676    0.255251
C      0.067579   -1.515006   -0.008572
C      1.010659    1.101666   -0.070230
C     -0.911983   -0.510905   -0.381258
C     -0.383928    0.876541   -0.405408
Cl     1.579082    2.781842   -0.120083
O     -2.084987   -0.594678    0.396010
O     -1.220283    1.632546    0.474869
H      2.019844   -2.043662    0.560752
H      2.866889    0.318970    0.503259
H     -0.221740   -2.568797    0.040202
H     -1.313313   -0.722922   -1.433646
H     -0.579652    1.336266   -1.424827
H     -1.886124   -0.723797    1.350554
H     -2.084244    1.749130   -0.021340
