27

C      3.842527    0.708415   -0.349649
C     -3.325816   -0.285863    1.054560
C      2.779427   -0.314990    0.064002
C     -2.036217   -0.523322    1.104210
C      1.854939    0.305822    1.010298
C     -2.091903    0.526012   -1.458746
C      0.555659    0.467025    0.870072
C     -1.991816   -0.975421   -1.312476
C     -1.039861    1.089141   -0.893158
C     -1.233378   -1.033036   -0.003551
C     -0.146788    0.014977   -0.321256
H      4.858793    0.263366   -0.279587
H      3.723077    0.972187   -1.440602
H      3.722984    1.616083    0.246118
H     -3.887396   -0.464781    0.144313
H     -3.838828    0.099087    1.949121
H      2.384006   -0.740264   -0.842143
H      3.331510   -1.120253    0.634235
H     -1.511213   -0.327990    2.053460
H      2.324517    0.676778    1.948277
H     -2.881067    1.084551   -1.941351
H      0.007418    0.950259    1.663545
H     -2.947937   -1.482137   -1.320357
H     -1.315194   -1.286628   -2.150777
H     -0.839733    2.141044   -0.841437
H     -0.777285   -2.018922    0.178323
H      0.479578   -0.341141   -1.145564
