16

C      1.652715   -0.613124   -0.189391
C      1.614824    0.825300    0.021424
C      0.578697   -1.344980   -0.111895
C      0.439377    1.349564    0.294185
C     -0.740631   -0.819801    0.185944
C     -0.831329    0.626684    0.405530
Cl     0.433932    3.123842    0.547618
O     -1.695566   -1.268062   -0.769922
O     -1.765523    1.238283   -0.479591
H      2.618066   -1.099858   -0.421720
H      2.527460    1.400727   -0.050737
H      0.733670   -2.441976   -0.294196
H     -1.054311   -1.307050    1.186814
H     -1.305257    0.859671    1.423520
H     -1.924631   -2.192073   -0.504259
H     -1.281494    1.662853   -1.243325
