17

C      2.705648    0.465747    0.577945
C     -2.540128   -0.110445    0.177118
C     -1.782705   -1.246213    0.241848
C     -1.952131    1.062891   -0.244012
C     -0.451302   -1.175039   -0.118640
C     -0.606345    1.116996   -0.604302
C      0.151830   -0.035172   -0.536012
O      2.272403   -1.410412   -1.207890
S      1.879966    0.073210   -1.007674
H      2.730744    1.556750    0.735087
H      2.201988   -0.045437    1.414480
H      3.744196    0.059624    0.534298
H     -3.585525   -0.088721    0.442398
H     -2.243658   -2.166009    0.571978
H     -2.504433    1.978754   -0.311338
H      0.156700   -2.087883   -0.066402
H     -0.177248    2.051359   -0.929524
