26

C      3.187162   -0.764814    0.557733
C     -1.632236   -0.578334   -1.659065
C     -2.890243   -0.058915    0.471203
C      1.895501    1.152978   -0.184655
C      0.477577    1.464882   -0.683762
C      0.860826   -1.157464    0.075548
C      2.036674   -0.269092    0.166012
C     -0.562382    0.886797    0.215132
C     -0.371197   -0.509094    0.616676
C     -1.525931   -0.144305   -0.231312
H      4.077313   -0.118848    0.631955
H      3.340064   -1.798520    0.824941
H     -1.061207   -1.509606   -1.887280
H     -1.303435    0.191521   -2.389929
H     -2.690933   -0.823431   -1.967114
H     -2.768341   -0.087889    1.552529
H     -3.410390    0.858928    0.149370
H     -3.506557   -0.937440    0.120230
H      2.576232    1.465195   -1.004331
H      2.118720    1.802715    0.686360
H      0.414731    2.575132   -0.690649
H      0.374736    1.152245   -1.744680
H      0.768537   -1.459668   -0.990357
H      1.057815   -2.117610    0.630122
H     -0.853019    1.589078    1.051858
H     -0.610016   -0.804440    1.680037
