79

C     10.238926    1.544864    1.464713
C      9.965159    0.833263    0.173755
C      8.588471    1.203930   -0.368972
C      8.343299    0.467664   -1.674342
C      7.002580    0.814257   -2.224058
C      5.851947    0.456412   -1.261553
C      5.828017   -0.993696   -0.973857
C      4.885638   -1.569431   -0.011599
C      3.421123   -1.406886   -0.158371
C      2.952650   -0.020550    0.037411
C      1.431387    0.118232   -0.130981
C      0.955134   -0.273634   -1.488834
C     -0.529183   -0.128627   -1.663182
C    -10.169636    1.512084   -0.505345
C     -1.237841   -1.008310   -0.663560
C     -9.384258    1.550772    0.723039
C     -9.879087    0.794669   -1.573192
C     -3.466070   -1.776196    0.181318
C     -3.233039   -1.529083    1.599879
C     -4.981671    0.121065    2.477674
C     -7.220597    0.846385    1.702215
C     -2.749433   -0.896259   -0.808467
C     -3.597319   -0.313953    2.315639
C     -5.766313    0.450079    1.276632
C     -7.948579    1.160865    0.420610
C     -8.688286   -0.042447   -1.575979
O     -3.173010    0.385504   -0.918718
O     -3.076289   -0.473804    3.648809
O     -5.324715    1.669222    0.684934
O     -8.411261   -0.723276   -2.585816
O     -7.926422   -0.013991   -0.406746
H     11.319028    1.617284    1.673833
H      9.764534    0.976849    2.286270
H      9.789152    2.564434    1.427343
H     10.722250    1.119007   -0.566199
H     10.020134   -0.265875    0.376270
H      8.572522    2.298252   -0.507470
H      7.847494    0.942241    0.406518
H      9.094966    0.877009   -2.404186
H      8.563976   -0.586104   -1.533257
H      6.980654    1.905137   -2.407979
H      6.795799    0.310854   -3.167355
H      5.854954    1.053117   -0.352343
H      4.954563    0.743992   -1.919334
H      6.902438   -1.272037   -0.674561
H      5.757148   -1.567163   -1.970759
H      5.091022   -2.704607    0.013591
H      5.167517   -1.302548    1.062024
H      2.952114   -2.118241    0.603249
H      3.075098   -1.856941   -1.130531
H      3.075867    0.177129    1.171265
H      3.472213    0.801552   -0.413359
H      1.221746    1.189422    0.064672
H      0.978075   -0.461930    0.687877
H      1.308817   -1.264036   -1.834667
H      1.415532    0.449913   -2.226696
H     -0.787053    0.931596   -1.576180
H     -0.780886   -0.539190   -2.678858
H    -11.087430    2.117741   -0.586820
H     -0.882030   -2.044418   -0.815933
H     -1.001341   -0.727839    0.380475
H     -9.355538    2.582646    1.123413
H     -9.739639    0.858365    1.512586
H    -10.534001    0.828742   -2.458261
H     -4.509505   -1.981072   -0.144407
H     -2.983225   -2.816499   -0.021675
H     -3.658392   -2.404675    2.208395
H     -2.100051   -1.662502    1.763876
H     -5.564867   -0.586770    3.173256
H     -5.006690    1.073779    3.126132
H     -7.675292    0.036187    2.272274
H     -7.082088    1.778562    2.291106
H     -2.956819   -1.382605   -1.817394
H     -3.002908    0.595477    1.971603
H     -5.924430   -0.342524    0.552103
H     -7.427285    1.983805   -0.100808
H     -2.677681    1.059496   -0.418927
H     -3.169219    0.367195    4.138268
H     -5.492564    1.589817   -0.271496
