70

C      7.200885   -3.121373   -2.235620
C      7.877137   -0.731000   -2.182313
C     -2.776847   -0.365073   -2.033782
C     -4.110848    0.042316   -1.629273
C     -1.664483   -0.015495   -1.484435
C     -4.908445   -1.249212   -1.292798
C     -1.253413    0.809549   -0.399587
C     -5.003598   -2.163146   -2.480961
C     -3.985374    3.200236    0.574338
C     -3.309621    3.666839    1.853405
C      5.601670   -0.193626   -0.569370
C      0.279497   -1.510838    2.921206
C      4.514452    0.065796    0.235217
C      0.973136   -2.504151    2.263433
C     -1.855388    3.953202    0.056013
C      4.987778   -2.510760   -0.547016
C      1.806674    0.077285    2.129120
C     -2.810369    2.786475   -0.252239
C     -1.832459    3.705534    1.550695
C      5.834198   -1.512103   -0.963165
C      0.676363   -0.193833    2.872149
C     -2.097941    1.661334    0.436495
C      3.650035   -0.910519    0.668274
C      2.523688   -0.896705    1.458675
C      2.108992   -2.217306    1.518236
C      3.891432   -2.213167    0.271364
C     -5.795146   -3.393106   -2.088656
C     -1.264182    2.314231    1.576891
N     -1.479031    1.714776    2.836461
N      6.956795   -1.776197   -1.784531
O     -5.995714   -4.295347   -2.936461
O     -6.305991   -3.555338   -0.819925
O     -0.694154    0.508881    4.987889
O      0.853394    2.116535    4.082355
O      2.943741   -2.938103    0.807689
S     -0.169815    1.097700    3.683462
H      7.141933   -3.800002   -1.363925
H      6.387952   -3.346410   -2.986300
H      8.198244   -3.210159   -2.724840
H      8.206626   -0.152453   -1.267961
H      7.428827    0.011649   -2.874619
H      8.776147   -1.135519   -2.675672
H     -2.712787   -1.053004   -2.934000
H     -4.219197    0.623570   -0.714893
H     -4.703084    0.511656   -2.454712
H     -0.762428   -0.511410   -2.023266
H     -4.381762   -1.770497   -0.444351
H     -5.924423   -0.994872   -0.941419
H     -0.587001    0.221858    0.336850
H     -0.454167    1.535661   -0.842878
H     -5.574836   -1.661063   -3.272012
H     -4.005025   -2.531055   -2.825690
H     -4.446753    4.087257    0.091251
H     -4.725690    2.399421    0.774748
H     -3.460269    2.826273    2.584131
H     -3.697190    4.624282    2.217908
H      6.298402    0.548950   -0.926486
H     -0.604167   -1.746132    3.497656
H      4.336137    1.095034    0.540269
H      0.661668   -3.548668    2.297850
H     -2.318580    4.923501   -0.208198
H     -0.880551    3.782589   -0.404299
H      5.189453   -3.519958   -0.868019
H      2.195221    1.090624    2.034371
H     -2.991674    2.672646   -1.310089
H     -1.272125    4.442893    2.112409
H     -2.810341    1.013343    1.029477
H     -0.210978    2.334870    1.222866
H     -2.332832    1.133206    2.882060
H     -7.111796   -4.125895   -0.641454
