56

C     -2.121398    4.446075   -0.844257
C     -2.089157    3.331150    0.003920
C      1.032772    1.299650   -0.651259
C      5.410524   -3.161173    0.597411
C      4.409259   -3.415362    1.673236
C      2.269196    1.321008   -1.216642
C     -1.021386    5.246249   -0.938461
C     -0.920151    1.875061    1.643891
C      1.833498   -0.240705    0.910518
C     -1.471860   -1.586983   -0.028462
C      0.102036    3.865534    0.608242
C     -1.012079    2.994335    0.749020
C      0.777962    0.500452    0.457274
C      4.070081   -2.453943    0.589669
C     -0.497428    0.531389    1.128561
C      3.363376    0.555700   -0.741311
C      3.092704   -0.233460    0.349938
C     -1.530448   -0.299366    0.509006
C     -3.683675   -1.619691   -0.426480
C      5.786234    0.121765   -1.182360
C     -5.113771   -1.885571   -0.765193
C     -5.527244   -3.018651    0.190782
C     -5.156107   -2.339011   -2.194160
F      6.057533   -0.902520   -2.105291
F      6.823188    1.052278   -1.202111
F     -4.687085   -4.082388   -0.093246
F     -5.269059   -2.568966    1.470038
F     -6.851773   -3.368038    0.030934
F     -4.637584   -1.343124   -2.982500
F     -6.405266   -2.752886   -2.583365
F     -4.243635   -3.405638   -2.308887
N     -2.592776   -2.086874   -0.435287
N      0.058537    4.926555   -0.205047
O     -5.931650   -0.789247   -0.568792
O      1.148867    5.741308   -0.327922
O      4.118214   -1.047493    0.882000
O      4.553872    0.673243   -1.390796
S     -3.262806    0.048523    0.355361
H     -3.011155    4.692938   -1.440417
H     -3.006986    2.775994    0.022858
H      0.207853    1.880500   -1.111634
H      5.616561   -3.961634   -0.126168
H      6.277987   -2.533484    0.875681
H      3.945515   -4.444690    1.646495
H      4.691460   -3.130834    2.688174
H      2.428034    1.967078   -2.088149
H     -1.018677    6.142499   -1.608251
H     -0.235339    2.160456    2.507603
H     -1.889890    1.673072    2.209606
H      1.698891   -0.890411    1.793507
H     -0.517362   -2.156655   -0.108009
H      0.976011    3.635447    1.189299
H      3.329718   -2.821501   -0.148820
H     -0.272302   -0.038554    2.165668
H      5.877341   -0.379781   -0.212476
H     -5.979179   -0.499626    0.377299
