56

C      3.938007    3.869512   -0.062577
C      2.960854    2.958489   -0.483082
C     -1.489933    0.483688   -1.566064
C     -5.937669   -2.616709    1.189613
C     -5.967047   -1.904222    2.494116
C     -2.696702   -0.092670   -1.915121
C      3.519122    5.037316    0.564564
C      0.479900    2.367606   -0.710837
C     -1.903509   -0.069686    0.682681
C      1.326575   -0.780591   -0.878414
C      1.321385    4.429056    0.371029
C      1.635887    3.213926   -0.278073
C     -1.085366    0.502562   -0.271144
C     -5.231874   -1.305862    1.346742
C      0.167718    1.228755    0.195600
C     -3.498328   -0.654123   -0.938153
C     -3.108337   -0.650736    0.388763
C      1.224486    0.164536    0.118233
C      3.131377   -1.680859    0.072746
C     -5.257603   -1.346564   -2.478452
C      4.314631   -2.454001    0.496371
C      5.280933   -2.595669   -0.646974
C      4.962520   -1.926454    1.751182
F     -6.622898   -1.461749   -2.428806
F     -4.737572   -2.564121   -3.035857
F      6.382767   -3.327191   -0.207954
F      5.718876   -1.374320   -1.116352
F      4.702349   -3.296672   -1.680107
F      5.397942   -0.634196    1.668963
F      6.097615   -2.733050    1.952365
F      4.166422   -2.131381    2.851380
N      2.332882   -1.615506   -0.739833
N      2.238905    5.292904    0.768849
O      3.840971   -3.768583    0.764532
O      1.883656    6.491207    1.403993
O     -3.842664   -1.188233    1.411467
O     -4.712913   -1.251653   -1.187363
S      2.543679   -0.201165    1.150484
H      4.967384    3.643121   -0.232872
H      3.222723    2.034415   -0.965015
H     -0.862633    0.918369   -2.336310
H     -5.456882   -3.581601    1.130831
H     -6.838017   -2.565542    0.514722
H     -6.897823   -1.384327    2.782783
H     -5.401034   -2.364567    3.359675
H     -3.019853   -0.116408   -2.945420
H      4.326484    5.731118    0.880866
H     -0.432359    3.047923   -0.810808
H      0.683017    2.063779   -1.743168
H     -1.555186   -0.046590    1.705239
H      0.632296   -0.852993   -1.716608
H      0.265410    4.647611    0.541542
H     -5.745987   -0.427581    0.802877
H      0.044282    1.530454    1.252908
H     -4.918557   -0.555502   -3.145645
H      3.509692   -4.135268   -0.094109
