43

C     -3.876365    0.582052    1.216783
C      3.349983    0.257465   -1.675900
C     -5.192616    0.273942    0.933532
C      4.685794    0.518873   -1.883318
C     -1.543152    0.758789    0.418982
C     -3.329563    0.054892   -1.073264
C      3.677319    0.470445    0.645602
C      1.093058   -1.349058    1.861403
C     -6.709026   -0.778191   -2.207579
C      7.315540    0.823618    0.580926
C     -2.954085    0.462649    0.184340
C      2.808080    0.226233   -0.395536
C     -0.790155   -0.484016    0.766787
C      0.693142   -0.178628    1.019528
C     -5.599590   -0.137949   -0.318079
C      5.553213    0.762906   -0.830409
C     -4.642629   -0.245484   -1.331012
C      5.033371    0.736118    0.443962
C      1.397280   -0.035561   -0.252698
C     -1.180603   -1.148093    2.014221
O      0.711421   -0.155023   -1.315825
O     -2.317406   -1.473119    2.422820
O     -0.020577   -1.404535    2.772651
O     -6.833726   -0.493782   -0.829779
O      6.916597    1.047261   -0.757797
O     -5.339863   -0.672501   -2.451903
O      6.102014    1.008259    1.286251
H     -3.558594    0.910954    2.185397
H      2.743883    0.078587   -2.545536
H     -5.900703    0.373136    1.755193
H      5.077340    0.536488   -2.887431
H     -1.098595    1.142038   -0.536612
H     -1.377857    1.582834    1.147472
H     -2.609141   -0.032587   -1.859782
H      3.338163    0.475910    1.650894
H      0.980358   -2.270427    1.239037
H      2.034893   -1.288163    2.385715
H     -7.223544    0.007134   -2.823213
H     -7.136282   -1.760658   -2.481197
H      7.620447   -0.234840    0.679427
H      8.098813    1.538172    0.905256
H     -0.781291   -1.224384   -0.065870
H      0.784654    0.738245    1.653318
