54

C     -1.767563   -2.194756    2.365331
C      5.370411   -1.644620   -0.440627
C     -1.731953   -2.606792    0.929413
C      4.951541   -0.217436   -0.726303
C      1.103464    4.868951    0.632769
C      2.240953    4.101390    0.494115
C     -2.428040   -2.195111   -1.890111
C     -0.149134    4.264728    0.590850
C      2.177074    2.708423    0.308953
C     -2.750805    2.107467    0.368683
C     -1.032372   -2.169627   -1.344698
C     -3.303378   -1.054006   -1.518857
C     -3.373132    1.145946   -0.581541
C      0.438187   -1.535625    0.558249
C     -0.224203    2.900883    0.409890
C     -1.276296    2.060033    0.336508
C      0.932926    2.120754    0.268447
C      1.244942   -0.443165   -0.124745
C     -0.726876    0.806480    0.155841
C     -1.679639   -0.319376    0.083678
C      2.656473   -0.532908    0.125105
C     -0.974069   -1.614648    0.036132
N     -2.554591    0.025105   -0.992839
N      0.582509    0.810666    0.107866
O      3.098723   -0.935927    1.225301
O      3.566809   -0.173906   -0.850082
H     -2.825800   -2.140735    2.693915
H     -1.271422   -2.929797    3.038104
H     -1.370216   -1.160701    2.544138
H      6.345317   -1.895305   -0.911530
H      5.499371   -1.752339    0.643670
H      4.606471   -2.346646   -0.864238
H     -2.770602   -2.754354    0.576497
H     -1.264385   -3.615346    0.860038
H      5.367079    0.499073   -0.001265
H      5.386663    0.050253   -1.720364
H      1.150113    5.938367    0.774893
H      3.203770    4.590236    0.529721
H     -2.323433   -2.254318   -3.014336
H     -2.949350   -3.164083   -1.639923
H     -1.076486    4.812304    0.693532
H      3.091266    2.147296    0.213314
H     -3.071672    3.144005    0.102681
H     -3.156669    1.920412    1.385571
H     -0.345430   -1.735695   -2.076003
H     -0.715735   -3.253700   -1.255007
H     -3.844191   -0.703750   -2.431308
H     -4.130064   -1.396872   -0.840638
H     -3.766505    1.704196   -1.473527
H     -4.295583    0.704357   -0.101350
H      0.922835   -2.510442    0.324233
H      0.427854   -1.308874    1.634729
H      1.096377   -0.640314   -1.233486
H     -2.311536   -0.230153    1.020609
