45

C     -1.217156    0.558245    3.316941
C     -2.220320   -0.935031   -0.943593
C     -2.107964    1.437262    1.189972
C     -0.414740   -0.343004    1.097219
C      3.110320   -0.174979   -0.330105
C     -1.620715    0.422933   -0.925112
C     -2.304901    1.407275   -0.101462
C     -0.241284    0.143000   -0.324517
C     -1.063731   -1.828512   -1.322910
C      2.362051   -1.397612   -0.060626
C     -3.204970    2.352122   -0.726302
C      0.715680   -0.716129   -2.480643
C      0.213005   -1.011288   -1.145319
N     -3.849780    3.254080   -0.076087
N      4.769330   -0.474667    1.952131
N      1.194511   -1.728406   -0.391853
N     -1.228901    0.532788    1.889118
O     -1.022551   -2.992405   -0.561507
O      3.058490   -2.375970    0.695372
O     -3.417386    2.319733   -2.119395
O      1.853949   -1.151735   -2.815022
O      0.064301    0.015270   -3.464265
O      2.663161    1.195235    1.994690
O      4.591645    1.774800    0.636164
S      3.732509    0.622999    1.149373
H     -1.755282   -0.339497    3.700655
H     -1.693346    1.482961    3.694330
H     -0.192172    0.542294    3.738210
H     -2.623590   -1.284286    0.028478
H     -3.033455   -0.991611   -1.722193
H     -2.636981    2.191182    1.791792
H      0.586386   -0.513543    1.539037
H     -0.903008   -1.350874    1.097458
H      2.607861    0.607738   -0.888427
H      4.036986   -0.434205   -0.922854
H     -1.530637    0.771914   -1.967766
H      0.316658    1.067194   -0.404310
H     -1.212756   -2.137654   -2.376890
H     -4.481862    3.913023   -0.537264
H      5.241895   -1.061815    1.209592
H      5.485406    0.025089    2.513153
H     -1.867400   -3.463757   -0.702731
H      2.569777   -3.154869    1.117766
H     -3.768940    3.128124   -2.624845
H      0.439907    0.096589   -4.415453
