50

C     -8.034525   -0.201808    0.338953
C      8.391927    0.371102   -0.999223
C     -6.066934   -0.564200   -1.153512
C     -6.209721    1.488799   -0.008643
C      6.446983   -1.040528   -0.245814
C      6.582490    1.148727    0.562129
C     -4.877837   -0.191190   -1.752661
C     -5.032121    1.865754   -0.598131
C      5.286696   -1.258682    0.460368
C      5.423944    0.954300    1.276875
C     -1.928675    0.386115   -0.149783
C      1.343619   -1.249312    0.761069
C     -6.743807    0.254034   -0.285372
C      7.132689    0.156325   -0.223691
C     -4.352127    1.056178   -1.463918
C      4.757395   -0.249644    1.238691
C     -0.731958    0.019540    0.704293
C      0.208686   -0.829676   -0.160471
O     -1.137731   -0.802891    1.748969
O     -0.545007   -1.914124   -0.592060
O     -2.865963    3.133871   -2.286956
O     -2.695722    1.071207   -3.548755
O      3.162245   -1.966180    2.547379
O      3.238626    0.368157    3.337451
O     -1.542276    1.215093   -1.208591
O      2.011837   -0.070384    1.114405
S     -2.857206    1.629555   -2.163756
S      3.279771   -0.519713    2.141178
H     -8.265351    0.372119    1.249470
H     -8.835714    0.002868   -0.400289
H     -7.979817   -1.274259    0.550920
H      9.253237    0.069063   -0.351053
H      8.365932   -0.312229   -1.870990
H      8.428967    1.429023   -1.259835
H     -6.506375   -1.549019   -1.365254
H     -6.762565    2.133943    0.688560
H      6.861519   -1.835752   -0.857435
H      7.090392    2.122231    0.614332
H     -4.348707   -0.843455   -2.437785
H     -4.629541    2.839770   -0.367398
H      4.764110   -2.228113    0.419918
H      4.991121    1.748802    1.900753
H     -2.720008    0.863718    0.456876
H     -2.363598   -0.518521   -0.609922
H      1.991050   -1.949126    0.203679
H      0.972788   -1.689200    1.694477
H     -0.159269    0.897336    1.021845
H      0.551042   -0.180559   -0.965890
H     -1.861386   -0.402298    2.290563
H     -0.483129   -2.689236    0.004032
