45

C     -2.630606    2.482243   -0.465367
C     -2.264272   -2.156064    0.588342
C      2.552142    0.778088   -2.313505
C      1.635786   -1.829163    2.227783
C     -3.282266    0.120936   -0.879645
C     -1.976133   -0.532551   -1.193772
C      2.806098   -1.459324   -1.318638
C      2.439443   -2.234309   -0.103732
C     -3.045541    1.191257    0.154945
C     -1.371100   -0.995162    0.120454
C      1.844592   -0.260975   -1.439362
C      2.390652   -1.263294    1.088449
C     -0.338279    1.641515    1.314551
C      0.939580    1.506758    0.966259
C     -0.571634    2.976423    1.859871
C      1.544921    2.821875    1.308123
O     -1.649020    3.475497    2.295354
O      2.755050    3.149547    1.145590
O      0.613134    3.675117    1.839654
P     -1.652589    0.424267    1.174119
P      1.763769    0.191053    0.291046
H     -2.960348    2.557692   -1.542947
H     -3.211516    3.305563    0.041170
H     -1.573402    2.731905   -0.376105
H     -1.791260   -2.659765    1.475745
H     -3.239415   -1.779052    0.935829
H     -2.445016   -2.867681   -0.240048
H      2.988061    0.226734   -3.156544
H      1.758057    1.492276   -2.619833
H      3.339366    1.295760   -1.706297
H      0.553489   -1.759418    2.186156
H      2.065946   -1.395094    3.171572
H      1.889976   -2.926938    2.297911
H     -3.622606    0.638141   -1.802059
H     -4.085392   -0.583124   -0.602071
H     -2.169522   -1.428130   -1.789099
H     -1.348135    0.180056   -1.733386
H      3.837824   -1.114834   -1.249446
H      2.635157   -2.078500   -2.193813
H      3.273070   -2.925261    0.107445
H      1.514032   -2.827257   -0.188715
H     -3.910164    1.269521    0.845096
H     -0.386752   -1.392327    0.010494
H      0.929743   -0.543100   -1.950578
H      3.455080   -1.120899    1.419005
