39

C      4.878388   -2.782873   -0.697947
C     -2.912298   -0.527405    1.633753
C     -4.473400   -0.792265   -0.217706
C      1.352037    3.034348    1.053548
C      4.139402   -0.454338   -0.453751
C     -1.529818    1.609061   -0.202173
C      0.239474   -1.714140   -0.555716
C      3.775909   -1.772959   -0.586491
C     -0.493333    0.557941   -0.317351
C      3.157965    0.502159   -0.348596
C     -0.772734   -0.785365   -0.453488
C      1.564393   -1.275911   -0.519763
C     -2.930671    1.088738   -0.284508
C      1.828270    0.069826   -0.383402
C      0.820294    1.015620   -0.279253
C     -3.069992   -0.345456    0.141638
O      3.407231    1.727110   -0.224973
O     -3.363548    1.181966   -1.606566
O      1.147732    2.336699   -0.145678
O      2.540760   -2.173099   -0.618799
O     -2.109294   -1.173365   -0.484592
H      5.467676   -2.779942    0.226492
H      5.508660   -2.592081   -1.589267
H      4.465866   -3.807738   -0.830603
H     -3.758260   -0.072788    2.198557
H     -2.954358   -1.617898    1.835148
H     -1.927707   -0.144679    1.978370
H     -4.819625   -0.310167   -1.161778
H     -4.592502   -1.879387   -0.220020
H     -5.169944   -0.402515    0.577598
H      0.415160    3.616503    1.297906
H      1.642513    2.408485    1.899244
H      2.129386    3.843568    0.958244
H      5.186291   -0.148277   -0.429792
H     -1.368294    2.112931    0.770695
H     -1.326854    2.358498   -0.993786
H      0.041258   -2.756589   -0.661370
H     -3.575870    1.718543    0.348233
H     -2.560163    1.127242   -2.182570
