40

C      4.009457    0.763696   -0.857012
C      3.603577   -0.824419    0.907099
C     -1.046193   -2.399768   -1.438223
C     -0.981455   -0.498173    1.755981
C     -3.244697    0.506232   -0.759511
C     -2.955473   -0.928786   -1.203041
C      1.206021    1.184059    1.071367
C     -2.534481    0.867340    0.496851
C     -0.204248    1.641870    0.961430
C      0.817603   -0.671520   -0.546056
C      3.104311    0.180752   -0.084494
C     -1.522198   -1.229949   -1.124768
C      1.681909    0.503806   -0.194526
C     -1.101196    0.479412    0.591901
C     -0.601117   -0.170641   -0.676430
O     -0.581047    0.764013   -1.713644
H      5.070658    0.541765   -0.795239
H      3.650842    1.495286   -1.579498
H      3.746901   -0.327630    1.895468
H      2.943466   -1.700177    0.973595
H      4.607550   -1.224744    0.592649
H     -1.770583   -3.169315   -1.770289
H      0.010554   -2.666198   -1.394280
H     -1.872159   -1.161280    1.820722
H     -1.014634    0.115623    2.701051
H     -0.054681   -1.055194    1.775128
H     -4.340279    0.539767   -0.558214
H     -3.082314    1.217706   -1.600163
H     -3.354604   -0.986451   -2.254669
H     -3.567004   -1.590017   -0.530602
H      1.913596    2.002799    1.288238
H      1.290133    0.469207    1.914809
H     -3.155568    0.461956    1.351004
H     -2.663268    1.985246    0.613370
H     -0.529180    1.938785    2.003958
H     -0.359758    2.537043    0.351521
H      0.942476   -1.550526    0.071125
H      1.124664   -0.972969   -1.591777
H      1.545755    1.255055   -1.011902
H     -0.733335    1.676340   -1.452924
