35

C      2.027611   -1.309037    1.075428
C     -3.454416    0.948409   -0.978622
C      3.219755   -0.968928    1.680663
C     -4.153597    1.132229    0.188083
C      2.415879    0.358757   -0.537702
C     -1.499016   -0.069249   -2.181208
C      1.595516   -0.642128   -0.062622
C     -2.314886    0.177179   -0.950701
C      4.029861    0.034386    1.194170
C     -3.711344    0.547056    1.368332
C      3.607866    0.701922    0.063856
C     -0.033969    0.063508   -1.742801
C     -2.575229   -0.224043    1.405090
C      0.310670   -0.998970   -0.727077
C     -1.886220   -0.395414    0.215377
O      5.240109    0.366832    1.823521
O     -4.441392    0.755033    2.520908
O      4.398709    1.722181   -0.458510
O      0.710591   -0.176715   -2.897795
O     -2.122429   -0.819336    2.597795
O     -0.738096   -1.168783    0.228496
H      1.388692   -2.095265    1.453221
H     -3.744213    1.376598   -1.935041
H      3.560854   -1.487951    2.570402
H     -5.042165    1.737331    0.151101
H      2.147212    0.921698   -1.418257
H     -1.705910    0.639524   -2.978840
H     -1.624987   -1.131713   -2.474604
H      0.118213    1.074001   -1.327465
H      0.388172   -1.962301   -1.271564
H      5.539251   -0.122382    2.643385
H     -5.280502    1.313887    2.537400
H      4.081512    2.212041   -1.294311
H      0.825545   -1.136722   -3.027189
H     -1.277646   -1.373637    2.547081
