39

C      5.246793    2.224760   -0.214047
C     -3.861075    1.663190    1.257616
C     -3.580939    0.724593   -1.042518
C      0.874981   -3.280178   -1.096900
C      4.267125   -0.059865   -0.133245
C     -1.718398   -1.326596    0.261654
C      0.598810    1.615308    0.089689
C      4.094306    1.305741   -0.132759
C     -0.460821   -0.541666    0.174646
C      3.170979   -0.895536   -0.056232
C     -0.538544    0.823673    0.169020
C      1.821450    1.025684    0.015625
C     -2.793483   -0.541721    0.964033
C      1.903664   -0.359076    0.021114
C      0.760489   -1.136996    0.100710
C     -3.000247    0.815954    0.346212
O      3.321530   -2.136038   -0.056254
O     -3.958186   -1.287096    0.962894
O      0.885493   -2.527641    0.103490
O      2.886187    1.786305   -0.058787
O     -1.748178    1.467936    0.241827
H      4.896394    3.264269   -0.366319
H      5.936154    1.956697   -1.031975
H      5.745538    2.214011    0.781210
H     -4.883606    1.303732    1.358720
H     -3.315801    1.780037    2.202990
H     -3.877274    2.690668    0.788539
H     -4.667885    0.925771   -1.030067
H     -3.138957    1.520042   -1.704158
H     -3.406409   -0.275190   -1.473119
H     -0.134207   -3.618164   -1.362190
H      1.536919   -4.156136   -0.971001
H      1.270062   -2.678438   -1.940310
H      5.277856   -0.472429   -0.195054
H     -1.544552   -2.249757    0.863894
H     -2.088583   -1.651195   -0.732673
H      0.506222    2.704969    0.087162
H     -2.471863   -0.368988    2.021307
H     -3.811946   -2.250633    0.785258
