40

C      2.343781    1.008393    2.611903
C      4.108666    0.237660    1.136131
C     -2.063832    2.481751   -0.039697
C     -0.903546   -1.781151    0.531841
C     -3.093486   -0.629907   -1.411727
C     -3.139530    0.321378   -0.226325
C      1.760739   -0.932488   -0.234372
C     -1.750236   -1.199429   -1.683868
C      0.699697   -1.254294   -1.223192
C      0.317366    0.846736    0.790756
C      2.681905    0.589093    1.410365
C     -1.938052    1.181034   -0.201370
C      1.681514    0.458112    0.332522
C     -0.691087   -0.901772   -0.670483
C     -0.629644    0.564222   -0.356283
O     -0.016061    1.170983   -1.480821
H      1.347081    1.286598    2.914029
H      3.101218    1.099940    3.406811
H      4.378551    0.752017    0.180279
H      4.223297   -0.859759    1.046131
H      4.731478    0.678277    1.938291
H     -1.175264    3.100729   -0.023417
H     -3.017637    2.984618    0.080325
H     -0.006161   -2.428289    0.763190
H     -1.714526   -2.541920    0.327318
H     -1.215363   -1.256111    1.437426
H     -3.538490   -0.155944   -2.323362
H     -3.790060   -1.456607   -1.157334
H     -3.262436   -0.245091    0.731277
H     -4.037631    0.988031   -0.346647
H      1.865997   -1.640991    0.598461
H      2.745985   -0.980248   -0.787313
H     -1.827635   -2.316380   -1.771457
H     -1.406347   -0.803630   -2.667179
H      0.845884   -0.625417   -2.115217
H      0.753519   -2.339569   -1.445845
H      0.000361    0.352025    1.725579
H      0.295770    1.942305    0.960440
H      1.966709    1.178226   -0.489446
H     -0.632497    1.126867   -2.267718
