39

C     -1.585143   -2.149473    0.860090
C     -0.051179    3.313420   -0.780496
C      1.865721   -0.934320   -1.298121
C     -1.919383    1.258603    0.402225
C      1.445104   -1.052852    2.015281
C     -1.440101   -1.201288   -1.386939
C      2.364681   -0.376841    1.023569
C      0.167886   -0.222377    1.813160
C     -1.132890    0.228623   -1.685038
C      1.506792    1.344945   -0.411235
C     -0.624601   -1.563930   -0.148844
C      0.303105    1.872616   -0.513747
C      1.437368   -0.115621   -0.141524
C     -0.685796    0.798710   -0.330874
C      0.031011   -0.317891    0.315995
H     -1.068044   -2.674658    1.685254
H     -2.235292   -2.898152    0.358384
H     -2.253111   -1.394385    1.309475
H     -0.276726    3.854248    0.150740
H     -0.985349    3.310528   -1.382768
H      0.771048    3.819466   -1.289765
H      2.369993   -0.233709   -2.030399
H      1.046764   -1.397930   -1.886062
H      2.642295   -1.645852   -1.000769
H     -1.792960    1.325282    1.487590
H     -2.771989    0.629422    0.080116
H     -2.144901    2.289658    0.034035
H      1.263736   -2.096250    1.695511
H      1.813899   -0.977726    3.052135
H     -2.544012   -1.255826   -1.170691
H     -1.273303   -1.897428   -2.220179
H      2.700902    0.563765    1.507395
H      3.217740   -1.025513    0.736811
H     -0.618760   -0.717852    2.373911
H      0.402003    0.793658    2.136185
H     -0.408576    0.409059   -2.477571
H     -2.063601    0.796796   -1.978118
H      2.429925    1.938083   -0.517070
H      0.095744   -2.397008   -0.387650
