27

C      3.351860    0.251655   -0.291046
C     -0.899061   -1.883460    0.597215
C     -2.661900    0.992352    0.076952
C     -1.297447    1.614863    0.213636
C     -2.333193   -0.379746   -0.453769
C      0.994812    0.838798    0.012039
C      2.022023   -0.240227    0.254571
C     -0.373485    0.455245    0.518112
N     -0.959183   -0.647692   -0.169828
O      1.706305   -1.389436   -0.503685
H      3.542629    1.307742   -0.010946
H      4.147575   -0.430923    0.080822
H      3.309837    0.120348   -1.395102
H     -0.185014   -1.747404    1.458670
H     -1.893403   -2.110644    1.034353
H     -0.631518   -2.756546   -0.027946
H     -3.167691    0.943353    1.061918
H     -3.306184    1.513952   -0.655632
H     -1.251921    2.403641    0.990398
H     -1.003218    2.004199   -0.782927
H     -2.577002   -0.468219   -1.528179
H     -3.028322   -1.092194    0.077090
H      1.319714    1.734256    0.580491
H      0.947843    1.127027   -1.045203
H      2.081436   -0.484033    1.315080
H     -0.345297    0.305566    1.617554
H      2.489804   -1.982474   -0.552526
