37

C      5.092957   -0.516779    0.276129
C     -1.703521   -2.794069    0.204405
C      0.230581   -2.365029   -1.192208
C     -1.900309    3.397236    0.597226
C      3.953816   -0.528218    0.926033
C     -2.124035    1.339723   -0.716593
C     -1.715861   -0.066083   -0.841794
C     -0.182972    1.690790    0.848227
C     -0.407216   -1.978154    0.097504
C     -1.151823    2.285827   -0.110244
C     -0.779080   -0.542247    0.213412
C      0.391744    0.414586    0.223625
C      2.737340   -0.064868    0.292485
O      2.781384    0.358818   -0.914121
O      1.507047   -0.047131    0.910370
H      6.015170   -0.861020    0.736809
H      5.190043   -0.169494   -0.746028
H     -1.513662   -3.792943    0.638354
H     -2.425680   -2.274132    0.867348
H     -2.133512   -2.831973   -0.807579
H     -0.534338   -2.328944   -2.008993
H      0.504350   -3.449251   -1.112217
H      1.107286   -1.756980   -1.403689
H     -1.775818    3.354890    1.700965
H     -3.009286    3.302010    0.421415
H     -1.550373    4.404035    0.289442
H      3.919502   -0.882780    1.934457
H     -3.089415    1.376291   -0.130829
H     -2.396812    1.728111   -1.729113
H     -2.634850   -0.720875   -0.857069
H     -1.228274   -0.246357   -1.839998
H      0.591183    2.411640    1.100627
H     -0.755497    1.357376    1.755340
H      0.240387   -2.283753    0.942880
H     -0.550964    2.782409   -0.928322
H     -1.336424   -0.436779    1.193598
H      0.636934    0.734115   -0.831856
