27

C      3.421726   -0.060670    0.102279
C     -1.789567   -1.559868    0.896083
C     -1.926970    1.470002   -0.306940
C     -1.247694    0.586678   -1.323587
C     -1.799260    0.769273    1.000574
C      1.062587    0.157282   -0.535916
C      2.028661   -0.634708    0.254490
C     -0.359358   -0.300165   -0.477255
N     -0.930953   -0.372788    0.816951
O      1.741082   -0.757104    1.590769
H      4.185425   -0.820365   -0.078261
H      3.688251    0.580103    0.977201
H      3.429409    0.633109   -0.774676
H     -2.210246   -1.775938   -0.108882
H     -1.268228   -2.408989    1.350878
H     -2.683337   -1.350580    1.550160
H     -2.983584    1.605801   -0.640726
H     -1.479330    2.495812   -0.305620
H     -0.634782    1.187717   -2.003508
H     -1.999864    0.004863   -1.893533
H     -1.412925    1.479570    1.767544
H     -2.816989    0.484862    1.345295
H      1.426379    0.218825   -1.581955
H      1.078458    1.217234   -0.154426
H      2.093786   -1.685581   -0.156494
H     -0.395764   -1.313200   -0.964962
H      1.783087    0.148823    2.021230
