127

C      1.566682   -1.398333   -3.586976
C     -0.015454    1.854758   -0.924084
C      5.478025    3.669602   -2.881491
C      5.696404    5.529423   -1.319466
C      3.579899    4.225416   -1.355377
C      2.437781   -2.856237    1.465260
C      3.212152   -3.486690   -0.832545
C      3.972920   -4.717444    1.109316
C     -2.443454    1.524333    3.237284
C     -3.052086    3.148758    1.510614
C     -3.920703    3.361771    3.787626
C     -5.247775   -1.330485   -4.207668
C     -5.562584   -3.726014   -4.037508
C     -3.538702   -2.687230   -3.102760
C      8.282227    4.892448    2.417987
C      8.415650   -3.998588    2.275116
C     -9.474785    0.730907    2.889908
C     -8.921379   -3.729904    1.314323
C     -0.173947   -0.149682   -2.455356
C      6.775890    1.640927    1.549546
C      6.932071   -0.783678    1.232650
C     -7.043657    0.200433    1.589454
C     -6.990005   -1.970501    0.454937
C      6.553598    3.804509    0.538436
C      5.920183   -2.975589    1.297798
C     -5.942370    1.858978    2.926870
C     -6.698993   -3.226357   -1.564980
C      1.222575   -0.635516   -2.284909
C     -0.747080    0.620414   -1.297924
C      7.087873    2.982463    1.507183
C      6.992440   -2.136300    1.490786
C     -7.076894    1.159745    2.572642
C     -7.322847   -3.034726   -0.342664
C      5.921067    1.126510    0.606610
C      5.763441   -0.222940    0.764318
C     -5.865289   -0.073332    0.946429
C     -6.034064   -1.083580    0.043803
C      5.678181    3.292362   -0.425599
C      4.734279   -2.439492    0.824474
C     -4.744011    1.606082    2.293062
C     -5.728846   -2.344382   -1.995904
C      5.362901    1.945303   -0.385214
C      4.661174   -1.069219    0.559739
C     -4.706844    0.639523    1.300403
C     -5.397254   -1.274259   -1.189295
C      5.085993    4.155290   -1.486340
C      3.585679   -3.333604    0.602978
C     -3.566661    2.379981    2.710527
C     -5.026700   -2.529392   -3.311743
O      7.962654    3.505747    2.468908
O      8.183511   -2.659172    1.963143
O     -8.293401    1.428962    3.226553
O     -8.285295   -3.922519    0.071557
O      2.054296    0.452542   -2.206644
O     -2.028545    1.038837   -1.736720
O      4.514511    1.636577   -1.367362
O      3.464453   -0.751758    0.114798
O     -3.486988    0.549763    0.809184
O     -4.449597   -0.557553   -1.772305
P      3.291651    0.486537   -1.037671
P     -3.239134    0.191157   -0.830466
H      2.053636   -0.723574   -4.308786
H      0.616247   -1.741808   -4.039166
H      2.145839   -2.307962   -3.370434
H      0.667572    2.240538   -1.704034
H     -0.712480    2.720623   -0.710104
H      0.588338    1.731503   -0.001176
H      4.701027    3.004273   -3.306330
H      6.398602    3.031806   -2.752185
H      5.777184    4.493937   -3.544324
H      5.386569    6.012223   -0.370582
H      5.310942    6.167313   -2.164879
H      6.790773    5.453563   -1.444118
H      3.277045    3.593225   -0.514283
H      3.291195    5.291547   -1.215951
H      3.138911    3.823725   -2.297853
H      2.854969   -2.323040    2.347783
H      1.820904   -3.721483    1.787781
H      1.800002   -2.184814    0.885816
H      3.531871   -2.615731   -1.441186
H      3.806929   -4.348817   -1.255522
H      2.148877   -3.762998   -0.985629
H      4.719648   -5.193625    0.460140
H      3.040760   -5.336268    1.003600
H      4.219617   -4.718580    2.176985
H     -2.797932    0.670847    3.861013
H     -1.753102    1.187796    2.422936
H     -1.821336    2.153353    3.908519
H     -3.679578    2.947669    0.610639
H     -1.983508    2.910880    1.311887
H     -3.110233    4.225094    1.690096
H     -2.987144    3.853886    4.120428
H     -4.656972    4.125594    3.484533
H     -4.300287    2.820379    4.699222
H     -5.302856   -1.608611   -5.275347
H     -6.212068   -0.845649   -3.946756
H     -4.405597   -0.606014   -4.105891
H     -6.578163   -3.562597   -4.429761
H     -4.906697   -3.861028   -4.942567
H     -5.468868   -4.664422   -3.447108
H     -3.302683   -2.993861   -2.058022
H     -3.176615   -3.433886   -3.838390
H     -3.042146   -1.724604   -3.335508
H      8.637702    5.118130    1.373765
H      7.408822    5.534973    2.614799
H      9.135882    5.129380    3.085093
H      8.036420   -4.296642    3.278355
H      9.526503   -4.169209    2.238159
H      7.945131   -4.676052    1.537625
H     -9.455324   -0.313357    3.252587
H    -10.336634    1.249265    3.351961
H     -9.661283    0.703024    1.804057
H     -9.459030   -2.746655    1.349339
H     -8.139821   -3.697626    2.081646
H     -9.684316   -4.506064    1.496409
H     -0.829137   -1.031112   -2.613909
H     -0.224858    0.441677   -3.384570
H      7.148591    1.009868    2.317832
H      7.806748   -0.200940    1.360097
H     -7.943293   -0.282694    1.314519
H     -7.446444   -1.869321    1.406191
H      6.804502    4.844003    0.514644
H      6.013685   -4.028879    1.515269
H     -6.062876    2.593670    3.711704
H     -6.976350   -4.076974   -2.187094
H      1.374721   -1.385137   -1.486859
H     -0.873356   -0.059308   -0.432357
