86

C     -9.034710    0.395839   -0.612891
C     -8.582524    0.285188    1.787399
C      6.417792    1.134865   -1.103890
C     -3.564716   -1.323406    1.641038
C     -3.666846   -2.116372   -0.664718
C      3.965008   -1.508552   -1.182763
C      2.299959    0.802859    1.331904
C      8.357654    0.203327    0.727134
C      6.749490    1.673488    1.679839
C      0.197357   -1.302496    0.726459
C     -1.081013   -1.679178    0.005022
C      1.757033    1.236245   -1.406183
C      4.534708   -0.957097    1.493933
C     -4.193862    0.632190   -1.492650
C      3.178771    0.859350   -1.440293
C      3.098375   -1.485268    1.343062
C     -2.838812    1.237197   -1.628742
C     -0.506572    1.207474   -1.005076
C     -8.080767   -0.117218    0.421283
C      6.090232    0.130439   -0.065225
C      0.776530    0.533417   -0.853786
C      4.704513    0.124177    0.444402
C      1.231531   -0.761133   -0.222660
C     -1.962311   -0.447166    0.032158
C     -4.379783    0.197044   -0.053456
C     -6.702557    0.437011    0.264149
C     -3.378169   -0.918927    0.193919
C      3.613951   -0.198566   -0.515476
C      2.471949   -0.420155    0.495459
C     -1.702814    0.325323   -1.216603
N     -5.687237   -0.328748    0.096022
N      6.969318    0.387195    1.090893
O     -6.495058    1.808024    0.298142
O     -1.487602   -0.578032   -2.273194
H    -10.042427    0.641272   -0.181748
H     -8.643436    1.378468   -1.001669
H     -9.186923   -0.288961   -1.471146
H     -9.671077    0.400097    1.777138
H     -8.223562   -0.436243    2.557018
H     -8.156041    1.309899    1.994747
H      6.090317    0.854109   -2.128285
H      7.546457    1.182259   -1.178016
H      6.104611    2.164911   -0.900571
H     -3.597413   -0.359860    2.229908
H     -4.496330   -1.907764    1.779245
H     -2.687794   -1.867328    2.045001
H     -2.919859   -2.244687   -1.479134
H     -3.700113   -3.067745   -0.112886
H     -4.659023   -2.026379   -1.174251
H      3.135675   -2.242989   -1.180389
H      4.241333   -1.348185   -2.238913
H      4.781872   -2.044610   -0.615355
H      2.881502    0.726425    2.297944
H      1.235991    0.937560    1.682360
H      2.558117    1.755201    0.842821
H      8.916065   -0.147809    1.635868
H      8.776113    1.182630    0.460137
H      8.503562   -0.579146   -0.032490
H      6.293668    1.543311    2.697813
H      6.071103    2.335765    1.125082
H      7.729058    2.197250    1.752216
H     -0.059445   -0.630727    1.541484
H      0.611479   -2.234699    1.155662
H     -0.780134   -1.932128   -1.038000
H     -1.536600   -2.529700    0.518316
H      1.483012    2.182547   -1.879107
H      4.677492   -0.560870    2.519707
H      5.200306   -1.814874    1.361958
H     -4.397303   -0.177010   -2.208535
H     -4.933990    1.438964   -1.680878
H      3.769494    1.812395   -1.300784
H      3.407571    0.550201   -2.501009
H      3.077285   -2.490214    0.922972
H      2.606819   -1.469300    2.338753
H     -2.660026    1.579243   -2.655610
H     -2.806590    2.122541   -0.927760
H     -0.758515    1.898559   -0.174029
H     -0.449087    1.867286   -1.911762
H     -8.020057   -1.224159    0.301843
H      6.404207   -0.860216   -0.442813
H      4.466270    1.084980    0.974713
H      1.296072   -1.463755   -1.053895
H     -1.722835    0.202464    0.908734
H     -4.126641    1.027778    0.601984
H     -5.719391    2.222779    0.779760
H     -0.979661   -0.117877   -2.991178
