24

C     -2.940499    1.046965    0.237890
C     -1.357259   -1.171074   -0.882517
C     -1.411816    1.103135    0.171721
C      3.355763   -0.112694    0.073949
C      2.750197   -0.642584    1.179447
C      2.587822    0.349442   -0.970379
C      1.363098   -0.715589    1.251110
C      1.209612    0.290316   -0.928092
C     -0.872341   -0.310555    0.239207
C      0.617613   -0.242752    0.185103
H     -3.239582    0.297099   -0.525287
H     -3.193702    0.665885    1.238785
H     -3.374396    2.043535    0.046845
H     -1.475144   -0.650390   -1.843178
H     -2.325476   -1.663339   -0.607533
H     -0.637212   -2.021084   -1.018623
H     -1.097939    1.646944    1.086024
H     -1.054123    1.641092   -0.713196
H      4.428272   -0.061576    0.030085
H      3.293709   -1.027811    2.043968
H      3.091220    0.760199   -1.825254
H      0.844609   -1.126990    2.106419
H      0.638819    0.665352   -1.772343
H     -1.201246   -0.763528    1.195849
