96

C     -8.322997   -4.247579    1.658160
C     10.075307   -2.409784   -2.859964
C     -9.017370   -2.930819    1.940010
C      9.425369   -2.442589   -1.489276
C     -9.691994   -2.385932    0.697685
C     10.425046   -2.205283   -0.393593
C    -10.352460   -1.075246    1.088382
C     11.119443   -0.890230   -0.478535
C    -11.058655   -0.442871   -0.090854
C     10.234756    0.313586   -0.391851
C    -10.115179   -0.144540   -1.225280
C      9.483696    0.376119    0.905643
C     -9.010205    0.814736   -0.833441
C      8.626380    1.601440    0.986862
C     -8.156438    0.997319   -2.064585
C      7.579644    1.706893   -0.074086
C     -6.996071    1.925643   -1.882039
C      6.586869    0.592307   -0.085294
C     -6.101078    1.416530   -0.803076
C      5.840612    0.535085    1.256884
C     -4.875290    2.284564   -0.560085
C      4.873742   -0.602761    1.151523
C     -4.019665    2.389912   -1.773874
C      4.034441   -0.854695    2.351860
C     -2.796686    3.230408   -1.590606
C      3.160444    0.268375    2.791279
C     -0.279432   -0.471182   -0.385597
C     -1.207926    1.146213    1.230589
C      0.049530    0.668031    0.580796
C     -1.877516    2.705194   -0.553273
C      2.194817    0.713440    1.772754
O     -1.135094    0.013468   -1.351211
O     -0.763046    3.312196   -0.399709
O      2.541124    1.649287    1.005860
O     -2.095679    1.633571    0.261074
O      0.930712    0.188335    1.582730
H     -8.646116   -4.596686    0.656188
H     -7.210285   -4.068066    1.642502
H     -8.520070   -4.952423    2.469430
H     11.179162   -2.317982   -2.685753
H      9.687960   -1.575371   -3.470669
H      9.913073   -3.371279   -3.370738
H     -9.749499   -3.011578    2.781654
H     -8.267817   -2.172193    2.246431
H      8.593853   -1.714156   -1.506981
H      8.952791   -3.434291   -1.336121
H    -10.505769   -3.058776    0.352091
H     -8.911926   -2.257238   -0.060877
H     11.176392   -3.023791   -0.459174
H      9.919900   -2.336251    0.577703
H    -11.136375   -1.327169    1.831731
H     -9.650726   -0.381155    1.590815
H     11.808466   -0.830326    0.413904
H     11.781131   -0.798789   -1.351713
H    -11.607591    0.426808    0.264053
H    -11.789100   -1.187494   -0.469155
H     10.870403    1.208285   -0.533504
H      9.468897    0.330244   -1.220444
H     -9.711277   -1.088093   -1.636910
H    -10.697865    0.340203   -2.032904
H     10.234031    0.325102    1.722576
H      8.863833   -0.544074    1.022670
H     -9.398346    1.794282   -0.526322
H     -8.391014    0.420385   -0.010777
H      9.251530    2.538962    0.895350
H      8.194202    1.674370    2.020875
H     -7.757180   -0.004448   -2.396297
H     -8.791589    1.347129   -2.924172
H      7.039871    2.667266    0.089593
H      8.076130    1.789055   -1.060053
H     -7.403647    2.933551   -1.677783
H     -6.431602    1.903574   -2.852874
H      7.066279   -0.361807   -0.310384
H      5.826997    0.785189   -0.876406
H     -6.636963    1.406901    0.185526
H     -5.818241    0.372681   -1.026392
H      5.300470    1.503474    1.321245
H      6.567860    0.444943    2.062555
H     -5.160001    3.295506   -0.209374
H     -4.333890    1.804659    0.270447
H      5.432590   -1.561474    0.945315
H      4.264791   -0.444867    0.232514
H     -3.639136    1.366208   -2.081884
H     -4.584351    2.730519   -2.670768
H      3.346023   -1.708624    2.084413
H      4.607912   -1.206587    3.229784
H     -2.222160    3.181587   -2.549959
H     -3.044128    4.299939   -1.377287
H      2.536373   -0.134010    3.642891
H      3.728238    1.115240    3.247067
H      0.641182   -0.921470   -0.808791
H     -0.855170   -1.239369    0.203348
H     -0.927908    1.933806    1.963620
H     -1.736311    0.332959    1.794295
H      0.555448    1.491053    0.075752
H     -0.658888    0.486819   -2.080468
