60

C      5.076426    0.219223   -4.744554
C     -4.178300   -1.233591   -0.212803
C     -3.193430   -2.213127    1.779296
C     -0.845968    0.040850    2.593480
C     -3.448450    1.480503    1.407516
C      1.854366    2.474967    0.061869
C      0.884441    1.918872    1.072295
C     -1.080958   -1.738117    0.000720
C     -3.876960    0.118490    1.804927
C     -2.006080    1.724230    1.281290
C      0.008683   -1.209042   -0.940001
C      2.651106   -0.667728   -1.905335
C      1.673156   -1.031005    0.881054
C      4.268704   -0.508304   -3.749671
C      2.757747    1.334753   -0.418682
C      1.862699    0.343525   -1.130719
C     -1.917400   -0.546044    0.391309
C      0.067837    0.850749    0.395032
C      3.352873    0.729263    0.773719
C     -3.231263   -0.939711    0.961989
C     -1.145482    0.456254    1.206250
C      0.876596   -0.284907   -0.143059
O      4.359654   -1.761080   -3.709402
O      4.461928    1.137459    1.196830
O      3.414384    0.099633   -2.854569
O      2.714690   -0.280620    1.437603
H      5.873093   -0.407884   -5.146466
H      5.587549    1.055630   -4.185454
H      4.464828    0.673842   -5.559533
H     -4.846593   -0.335846   -0.365810
H     -3.609075   -1.344938   -1.145808
H     -4.838450   -2.075578   -0.004686
H     -4.169967   -2.769861    1.655738
H     -3.161075   -1.979624    2.877182
H     -2.413197   -2.911010    1.484550
H      0.192529    0.321575    2.942042
H     -1.501234    0.572181    3.347278
H     -0.960561   -1.027166    2.814418
H     -3.991346    1.739167    0.451040
H     -3.885853    2.203717    2.157564
H      1.347430    2.855762   -0.855207
H      2.510133    3.217870    0.530600
H      0.181337    2.745702    1.326943
H      1.431860    1.600976    1.951253
H     -1.729314   -2.389981   -0.628591
H     -0.601472   -2.249870    0.826208
H     -4.996867    0.065239    1.653730
H     -3.763332   -0.090396    2.909494
H     -1.634952    2.331226    2.157938
H     -1.817885    2.361761    0.392787
H     -0.484347   -0.643409   -1.757605
H      0.585804   -2.088998   -1.314693
H      3.372914   -1.238585   -1.326137
H      1.998586   -1.296877   -2.519494
H      1.094439   -1.500577    1.672703
H      2.167328   -1.881139    0.323859
H      3.489002    1.702070   -1.146503
H      1.240207    0.912250   -1.851948
H     -2.128539   -0.009506   -0.584365
H     -0.363982    1.366782   -0.519414
