49

C     -3.922048   -1.733208    0.488845
C     -4.200755   -0.062180   -1.255950
C      1.108629    1.874314    0.264780
C      5.645400    0.315973    0.697313
C      5.544079    0.834300   -0.582815
C      4.550104   -0.300542    1.261282
C      4.378497    0.750632   -1.308166
C     -1.779224   -0.031753    1.660719
C     -0.396018    0.479337    1.627725
C     -1.944358    1.405723   -0.349458
C      0.156042   -1.557797   -0.595545
C     -2.677226    0.440560    0.571741
C      3.347206   -0.402587    0.549061
C     -0.743155    0.685797   -0.850506
C      3.296527    0.128668   -0.721077
C     -0.930355   -0.707630   -1.271580
C      2.057991   -0.998031    0.911335
C     -3.154642   -0.675125   -0.315419
C      0.247980    0.604079    0.308513
C      1.109578   -0.528129   -0.115248
N     -2.162656   -1.330007   -1.064053
N      1.961482   -0.114169   -1.211466
O      1.909426   -1.733794    1.903214
H     -3.242468   -2.458473    0.961923
H     -4.643859   -1.271251    1.181640
H     -4.498814   -2.307829   -0.292900
H     -4.971900   -0.800369   -1.540323
H     -3.685363    0.272774   -2.201930
H     -4.694506    0.806960   -0.779197
H      0.549217    2.736793    0.672876
H      2.046264    1.686663    0.808593
H      1.357643    2.087149   -0.792633
H      6.568230    0.383551    1.268481
H      6.443390    1.311125   -0.977799
H      4.593608   -0.720169    2.267320
H      4.291194    1.150700   -2.303421
H     -2.245285    0.298587    2.636651
H     -1.858670   -1.155874    1.702731
H      0.228299   -0.162323    2.311000
H     -0.383261    1.490494    2.130711
H     -1.602278    2.251348    0.297591
H     -2.618516    1.787848   -1.120454
H      0.646794   -2.239530   -1.295464
H     -0.282775   -2.179379    0.210700
H     -3.576470    0.978558    0.938550
H     -0.271112    1.320527   -1.643852
H     -0.679477   -0.773203   -2.372949
H     -2.576722   -1.844994   -1.855542
H      1.704332    0.005887   -2.213593
