57

C     -8.462087    1.302616    0.858134
C     -8.468620    0.439554   -0.371811
C     -7.249703    0.785417   -1.260112
C     -7.344029   -0.138074   -2.403645
C     -6.393106   -1.002496   -2.657233
C     -5.213377   -1.123251   -1.873169
C     -4.271188   -2.065536   -2.159460
C     -3.087989   -2.200043   -1.390136
C     -2.090285   -2.356465   -0.783324
C     -0.881835   -2.545848   -0.048258
C     -0.512308   -1.470288    0.951037
C      7.282121    1.077887   -0.744410
C      7.793482    0.905131    1.562741
C      8.635104    0.872295   -1.046016
C      9.129581    0.702953    1.251483
C     -0.248610   -0.155425    0.223119
C      1.265974    0.699105    1.769088
C      3.104332    1.660312    0.355204
C      6.854713    1.094312    0.573385
C      9.570264    0.683685   -0.056108
C      2.543816    0.458592    1.053680
C      5.433988    1.300907    0.941266
O     10.896986    0.485287   -0.405245
O      2.569811   -0.669057    0.235215
O      5.169777    1.308139    2.170204
O      0.135552    0.873061    1.034431
O      4.453582    1.475601    0.000115
H     -8.935581    0.766760    1.717268
H     -8.880399    2.294394    0.764677
H     -7.379821    1.432468    1.165125
H     -9.417679    0.610403   -0.888885
H     -8.453924   -0.638730   -0.102757
H     -7.373364    1.851699   -1.572619
H     -6.389886    0.718106   -0.625944
H     -8.249792   -0.086703   -3.050426
H     -6.548243   -1.668271   -3.548003
H     -4.982108   -0.516429   -1.040152
H     -4.575819   -2.653063   -3.029943
H     -2.647782   -3.318142   -2.177423
H     -2.540860   -1.285870    0.034628
H      0.029258   -2.675884   -0.739088
H     -0.908061   -3.547380    0.506646
H      0.371097   -1.782924    1.492344
H     -1.364511   -1.293185    1.660522
H      6.524328    1.234911   -1.509119
H      7.468794    0.914905    2.605038
H      8.954377    0.862654   -2.077886
H      9.849835    0.551726    2.039962
H      0.476346   -0.374075   -0.590492
H     -1.216065    0.171640   -0.258944
H      1.423596    1.643331    2.377431
H      1.171069   -0.088863    2.557639
H      3.058954    2.547327    1.043158
H      2.490965    1.912645   -0.561351
H      3.291751    0.198509    1.881057
H     11.496103    1.293710   -0.493613
H      2.641474   -1.474042    0.808017
