60

C      2.728200    2.350637   -0.175467
C     -1.356147   -1.515260   -1.522016
C      3.952736    0.084322   -1.749305
C      5.482381   -1.073007   -0.192769
C     -5.647271   -0.740307   -0.416950
C     -3.875451    0.622627   -1.516297
C     -0.244629    2.524827    1.774001
C      3.313383   -0.982071    1.476092
C     -3.693306   -1.219259    1.399946
C      1.666508   -1.108956   -0.311553
C     -2.541612    0.932181    1.085101
C      2.419865    1.097396    0.595503
C     -1.832846   -1.124755   -0.150130
C      3.059829   -1.492193    0.048504
C     -3.874362    0.252356    0.999340
C      3.700400    0.333353    0.779652
C     -3.305260   -1.417735   -0.075747
C      1.293896    0.298699    0.038084
C     -1.476950    0.278284    0.242827
C      4.096731   -0.495685   -0.395029
C     -4.187940   -0.268444   -0.386929
B     -0.032078    0.366013    0.936297
O      0.057504    1.214661    2.125410
H      2.446003    2.296042   -1.243295
H      2.192382    3.247362    0.229381
H      3.816627    2.607704   -0.071780
H     -0.671708   -2.409815   -1.421427
H     -2.194420   -1.914519   -2.166649
H     -0.775816   -0.739467   -2.024455
H      2.924625    0.080084   -2.159686
H      4.434149    1.081237   -1.817369
H      4.546318   -0.565319   -2.459210
H      6.219898   -0.622491   -0.901281
H      5.828143   -0.970051    0.860419
H      5.441553   -2.157338   -0.422620
H     -6.199030   -0.186370   -1.226389
H     -5.697917   -1.840184   -0.606085
H     -6.171537   -0.537345    0.517990
H     -4.800122    0.828924   -2.133696
H     -3.619651    1.640009   -1.095535
H     -3.115843    0.297221   -2.220384
H     -0.390360    2.646809    0.676245
H      0.599018    3.234110    2.023209
H     -1.109484    2.935544    2.358658
H      2.394626   -0.923469    2.069303
H      4.156918   -1.532326    1.897842
H     -4.614688   -1.718810    1.699312
H     -2.866166   -1.399793    2.090857
H      1.534440   -1.339153   -1.404144
H      0.997718   -1.852023    0.211785
H     -2.199447    0.810642    2.155602
H     -2.695852    1.998062    0.822432
H      2.110388    1.415581    1.635377
H     -1.363243   -1.794107    0.632137
H      3.263684   -2.542946   -0.112712
H     -4.655059    0.787993    1.519351
H      4.458646    0.918151    1.286646
H     -3.547080   -2.397250   -0.473912
H      0.992240    0.796425   -0.931573
H     -1.373532    0.903193   -0.688035
