60

C     -3.627016    0.051301    1.518710
C     -4.978508   -0.370819    1.187659
C      7.845610    2.643890   -0.412132
C      7.413192    1.622148   -1.230481
C      7.187816    2.835430    0.791419
C     -2.508929   -0.576422    1.227371
C     -5.715014    0.586782    0.306427
C      6.341947    0.788664   -0.878041
C      6.117562    2.000301    1.140642
C     -2.430644   -1.833966    0.504514
C     -5.961263    1.954474    0.795698
C     -1.761952   -1.232671   -3.149329
C     -0.240980   -1.166006   -3.030370
C      3.833410    0.173226    1.840133
C      2.840677   -0.732760    1.978106
C     -1.206239    0.404236   -1.601601
C      5.704277    0.997096    0.320390
C     -2.186398   -0.771912   -1.771181
C      0.055755   -0.460917   -1.737551
C     -1.641724   -1.752084   -0.778061
C      4.578530    0.157730    0.739199
C     -4.767324    2.755056    1.064249
C      2.634980   -1.623294    0.998900
C     -0.189336   -1.397192   -0.575900
N      0.595302   -2.594104   -0.637676
O     -4.702688    3.359547    2.177581
O     -3.708785    2.896919    0.187229
O      0.654326   -3.116972    1.977016
O      2.278806   -4.197795    0.520105
S      3.921738   -1.163578   -0.205174
S      1.506120   -2.928713    0.759529
H     -3.485574    0.983312    2.095686
H     -5.597435   -0.473197    2.137405
H     -5.069107   -1.367549    0.689031
H      8.683319    3.272202   -0.721975
H      7.928237    1.475026   -2.168252
H      7.534489    3.636423    1.422694
H     -1.564123   -0.122605    1.548451
H     -5.223119    0.608045   -0.717806
H     -6.725867    0.124085    0.055292
H      6.014065   -0.011086   -1.533072
H      5.615558    2.160723    2.078975
H     -3.425534   -2.255670    0.324186
H     -1.901319   -2.641917    1.107514
H     -6.573086    2.540776    0.039431
H     -6.617608    1.862045    1.710781
H     -2.114787   -2.236420   -3.388388
H     -2.123831   -0.468421   -3.889911
H      0.104748   -2.219501   -2.934161
H      0.199130   -0.655940   -3.906575
H      4.030149    0.932366    2.644477
H      2.175220   -0.767989    2.889927
H     -1.284025    0.867506   -0.617903
H     -1.289903    1.106542   -2.450323
H     -3.211346   -0.490775   -1.666177
H      0.972588    0.095560   -1.699675
H     -1.700013   -2.770000   -1.247689
H     -0.077032   -0.892379    0.379564
H      0.093835   -3.414040   -1.030773
H     -3.250877    3.815281    0.076124
