43

C      6.271082    0.298304   -0.593708
C     -5.756633   -1.580151   -0.391381
C      5.765259    1.100153   -1.593498
C     -6.263422   -0.309492   -0.285867
C      5.488640   -0.649727    0.008445
C     -4.464230   -1.845232    0.044412
C      4.449563    0.909611   -1.959162
C     -5.466453    0.678376    0.255624
C      3.119084   -1.797734    0.143044
C     -2.290317   -0.880685    1.111445
C      0.199596    2.176660   -0.022467
C      4.168728   -0.846920   -0.352402
C     -3.679607   -0.835564    0.586303
C      3.648757   -0.055317   -1.348189
C     -4.185104    0.443153    0.694228
C      1.854308   -1.079174   -0.249681
C     -2.229549    0.319707    1.999657
C      1.070199    1.022630   -0.369711
C     -1.053090    1.727426    0.678308
C      2.256264   -0.440217   -1.558102
C     -3.145894    1.295855    1.297281
N      1.415877    0.727594   -1.575690
N     -2.273810    1.892649    0.315866
O      1.637707    0.098413    0.529435
O     -0.993323    1.025071    1.898534
H      7.305267    0.449985   -0.308205
H     -6.353589   -2.378291   -0.810760
H      6.392228    1.860754   -2.076884
H     -7.271492   -0.127360   -0.631620
H      5.884055   -1.294739    0.807862
H     -4.078741   -2.846200   -0.044002
H      4.068975    1.549929   -2.747736
H     -5.868901    1.672280    0.335825
H      3.191247   -2.694880   -0.492018
H      3.209326   -1.991969    1.213223
H     -1.546945   -0.742755    0.295504
H     -2.087119   -1.831039    1.647438
H      0.743111    2.929923    0.584683
H     -0.125121    2.688004   -0.941285
H      0.975053   -1.715502   -0.320289
H     -2.514625    0.131955    3.038587
H      2.094994   -1.106714   -2.423926
H     -3.561353    2.051231    1.995989
