56

C      0.500738    1.109292    2.308390
C     -4.040901    0.007799   -0.638665
C     -2.805820    1.938766    0.201818
C     -1.492131   -2.579176   -0.714373
C      1.760695   -1.232319   -1.887661
C     -0.020636    1.230074   -1.929349
C      1.474642    1.181846   -1.990672
C     -2.836943   -0.181722    1.466831
C     -2.034025   -1.460450    1.377653
C      3.477458   -0.510407    0.683846
C      0.300930   -1.278752    0.462774
C      1.431000    0.851970    1.168937
C     -0.353140    0.820212   -0.510921
C      2.637549    0.131527    1.748116
C      3.222689    0.230853   -0.606751
C     -1.539809   -0.092463   -0.565824
C     -2.766271    0.450662    0.091728
C     -1.165418   -1.360448    0.160471
C      1.806203    0.017027   -1.078603
C      0.800364    0.058988    0.043984
O      3.421389    1.086995    2.398055
O      4.071897   -0.218009   -1.624293
H      0.029606    0.179259    2.626607
H     -0.195467    1.950305    2.134098
H      1.143404    1.441792    3.176939
H     -4.877824    0.498734   -0.118802
H     -4.117728   -1.091484   -0.468969
H     -3.942591    0.292224   -1.685188
H     -3.876075    2.254617    0.242299
H     -2.382308    2.439581   -0.693892
H     -2.353626    2.302661    1.146505
H     -2.282781   -3.195501   -0.290539
H     -0.562846   -3.177501   -0.884769
H     -1.829653   -2.227364   -1.713561
H      2.330559   -2.086652   -1.423045
H      2.332609   -1.023816   -2.840494
H      0.753236   -1.528218   -2.217542
H     -0.406607    0.459844   -2.628264
H     -0.428493    2.230749   -2.175613
H      1.955902    2.106666   -1.636800
H      1.819583    0.959793   -3.037091
H     -3.873770   -0.347891    1.793619
H     -2.329648    0.490708    2.187211
H     -2.790051   -2.289217    1.306456
H     -1.467959   -1.667605    2.307372
H      4.550934   -0.474903    0.908480
H      3.183629   -1.578346    0.609799
H      0.796044   -2.113306   -0.079564
H      0.511436   -1.486996    1.553079
H      1.721539    1.836736    0.733079
H     -0.538410    1.751506    0.053631
H      2.272149   -0.591453    2.505070
H      3.447863    1.300616   -0.415483
H     -1.819304   -0.357802   -1.616059
H      3.061361    2.007827    2.298216
H      4.314828    0.532174   -2.222278
