41

C     -0.588597    3.701879   -0.560018
C     -2.821079   -2.475624    0.382437
C      2.523347    0.325011   -1.287908
C     -2.215747    1.830710    0.012671
C     -0.350116   -2.721809    0.074948
C     -2.144181    0.453757   -0.669424
C      0.776649   -1.932295   -0.622012
C      0.182490    1.462113    0.206520
C     -0.794247    2.307481   -0.097333
C     -1.544355   -1.824182   -0.125016
C      2.432799   -0.310123    0.042600
C     -1.374592   -0.415916    0.335551
C      1.110612   -0.853958    0.429321
C     -0.020931    0.067766    0.671129
C      3.133819    0.423354    1.142396
O      2.454281    0.695600    2.162653
O      4.464290    0.766518    1.008425
H      0.483415    3.946530   -0.625025
H     -1.024712    4.415989    0.189787
H     -1.031584    3.879564   -1.571412
H     -3.605786   -1.706437    0.448560
H     -3.189269   -3.254721   -0.324550
H     -2.632273   -2.964437    1.358537
H      1.571091    0.487062   -1.821737
H      3.142729   -0.275143   -2.019126
H      3.105322    1.276560   -1.192443
H     -2.398358    1.639478    1.087377
H     -2.921249    2.499262   -0.469597
H     -0.537188   -3.657084   -0.476840
H     -0.108769   -2.894444    1.140810
H     -1.629512    0.509485   -1.628420
H     -3.169575    0.043704   -0.711536
H      0.395618   -1.442920   -1.523164
H      1.665451   -2.549087   -0.776800
H      1.180827    1.842942    0.097495
H     -1.679978   -1.810408   -1.250752
H      3.088887   -1.249341   -0.036984
H     -2.072712   -0.357069    1.238595
H      1.307263   -1.484427    1.351413
H     -0.034598    0.223590    1.811632
H      4.870519    1.381071    1.697535
