42

C      3.181269   -0.932997    0.879996
C     -2.136485   -1.192973    1.511662
C     -2.463347   -2.186018   -0.653192
C      0.204445    3.151025   -0.664848
C      2.305418   -0.371310   -1.396920
C      1.846854    1.006060   -1.068944
C     -2.177386    0.177174   -0.550312
C     -1.170799    1.898960    1.133085
C     -0.297199   -1.308130   -0.215146
C      2.077814   -1.106737   -0.119624
C     -1.612404    1.472492   -0.211293
C      0.871512    0.901566    0.112379
C     -1.703806   -1.064694    0.107636
C     -0.252925    1.774631   -0.112743
C      0.750247   -0.515249    0.417027
O      0.867392   -0.782739    1.801097
H      4.125639   -0.700104    0.339840
H      2.949581   -0.159272    1.652603
H      3.342570   -1.875167    1.449970
H     -2.752850   -2.114771    1.736797
H     -1.382586   -1.151621    2.283264
H     -2.862918   -0.352294    1.724594
H     -2.226637   -2.107820   -1.737074
H     -3.541229   -2.072329   -0.455046
H     -2.090079   -3.146896   -0.256975
H      1.181904    3.422335   -0.275495
H     -0.558040    3.909484   -0.347318
H      0.139094    3.118211   -1.772928
H      3.388168   -0.413855   -1.646286
H      1.674799   -0.799488   -2.202096
H      2.712103    1.633164   -0.866898
H      1.340963    1.419926   -1.961139
H     -2.085996    0.016497   -1.666372
H     -3.299759    0.192038   -0.390646
H     -1.048592    1.196942    1.952434
H     -1.343161    2.948527    1.513306
H     -0.184294   -1.215419   -1.336269
H     -0.077501   -2.402529   -0.030863
H      1.966361   -2.175330   -0.335767
H     -2.275339    2.276239   -0.678918
H      1.455779    1.367588    0.971266
H      1.161421   -1.735118    1.936706
