28

C      0.534679    2.176775    0.375755
C     -2.349813   -1.078251    0.170535
C      1.629493    1.169087    0.236265
C     -0.927893   -1.547079    0.386973
C     -0.852554    1.571778    0.351974
C     -2.186985   -0.004289   -0.878851
C      2.295049   -1.184646   -0.022666
C      1.183931   -0.258002    0.423051
C     -0.040178   -0.571459   -0.362712
N     -0.871429    0.563218   -0.680678
O      2.648384   -1.029792   -1.339355
H      0.608562    2.771160    1.317548
H      0.556002    2.932216   -0.447918
H     -2.794307   -0.653118    1.096257
H     -2.996895   -1.888790   -0.227748
H      2.145912    1.251207   -0.724130
H      2.360871    1.370215    1.064142
H     -0.716897   -1.475326    1.476294
H     -0.785418   -2.599549    0.016789
H     -1.148497    1.177116    1.343597
H     -1.576697    2.351404    0.068289
H     -2.991452    0.726199   -0.902827
H     -2.160370   -0.526613   -1.862272
H      3.173063   -1.089986    0.656288
H      1.938063   -2.242144    0.099731
H      1.004527   -0.421221    1.524406
H      0.240337   -1.062478   -1.307987
H      2.080513   -0.427631   -1.850750
