31

C      4.732571    0.201494   -0.133082
C      3.952152   -0.926030   -0.162566
C      4.099353    1.423618   -0.148888
C     -4.101242   -0.870245    0.480816
C      2.554001   -0.866883   -0.207489
C      2.733629    1.483042   -0.192848
C     -2.728725   -1.383107    0.303588
C     -4.319749    0.378308    0.840001
C      1.918880    0.350048   -0.223540
C     -1.827216   -0.255157   -0.086514
C     -3.226387    1.323205    1.081194
C      0.452369    0.535201   -0.273916
C     -0.364064   -0.688254   -0.131062
O     -3.357560    2.504937    1.421372
O      0.123727    1.491536    0.717439
O     -0.159397   -1.680714   -1.047528
O     -1.947040    0.780741    0.894357
H      5.813174    0.164339   -0.098330
H      4.445014   -1.885815   -0.150299
H      4.735406    2.309340   -0.124920
H     -4.943619   -1.526913    0.314061
H      1.970468   -1.765376   -0.226261
H      2.244585    2.448452   -0.204981
H     -2.710314   -2.220025   -0.428140
H     -2.389326   -1.753810    1.315677
H     -5.331833    0.733069    0.965178
H     -2.090552    0.177453   -1.058166
H      0.226548    1.051125   -1.241872
H     -0.154732   -1.124487    0.879699
H      0.307590    1.037448    1.579806
H     -0.657713   -1.446540   -1.875816
