30

C     -0.705824    2.426381   -0.580587
C     -3.109069   -0.983509    0.644755
C      1.554334   -1.433836   -0.984815
C     -1.381271    0.056268   -0.815820
C     -0.230692    0.980417   -0.772429
C     -1.626575   -0.768975    0.389541
C      1.979030   -0.116853   -0.421593
C      0.844906    0.669578    0.196260
C      3.126354   -0.258357    0.482964
C     -0.954844   -0.155887    1.557828
O      4.233511    0.308880    0.295479
O      2.968521   -1.070432    1.611384
O     -1.597073    0.114733    2.632276
O      0.399512    0.103054    1.414532
H     -1.383948    2.741531   -1.375390
H      0.201354    3.055168   -0.551866
H     -1.175516    2.508202    0.425220
H     -3.659119   -0.138628    0.179303
H     -3.439778   -1.899633    0.113310
H     -3.343572   -1.105519    1.714059
H      1.147631   -2.110578   -0.204161
H      0.926107   -1.356437   -1.881939
H      2.501966   -1.942788   -1.329950
H     -2.313574    0.671226   -0.993883
H     -1.351073   -0.622096   -1.718774
H      0.238556    0.984672   -1.801100
H     -1.186019   -1.785821    0.241511
H      2.333418    0.507171   -1.293579
H      1.313658    1.656258    0.499101
H      3.689089   -1.034191    2.328365
