39

C      4.106784    0.304697   -0.954839
C     -1.373481   -1.980160   -1.114475
C      3.764636   -1.062148   -0.401719
C      2.580470   -1.004209    0.533441
C     -2.870019    1.393768   -1.002180
C     -3.021757   -0.092568   -1.117491
C      1.346967   -0.490080   -0.134143
C     -2.652176    1.846954    0.424818
C      0.479254    0.505553    1.924979
C     -0.517137    1.658795    1.732011
C     -1.942189   -0.835780   -0.340367
C      0.151547   -0.426608    0.784391
C     -1.672243    0.944686    1.119702
N     -0.987676    0.139241    0.090687
H      5.194894    0.357791   -1.185844
H      3.882705    1.116713   -0.249381
H      3.590896    0.420337   -1.940020
H     -0.963024   -1.708318   -2.099569
H     -2.229670   -2.684938   -1.318683
H     -0.688124   -2.539845   -0.464773
H      4.626606   -1.435496    0.189442
H      3.612549   -1.741589   -1.243489
H      2.372328   -2.065358    0.831928
H      2.894672   -0.476708    1.427504
H     -3.842143    1.850351   -1.331281
H     -2.025332    1.751978   -1.630674
H     -4.040032   -0.433347   -0.845117
H     -2.857142   -0.366381   -2.195348
H      1.607746    0.539848   -0.522749
H      1.097775   -1.057023   -1.063131
H     -2.283879    2.904089    0.365749
H     -3.643389    1.795749    0.934003
H      1.506581    0.868023    1.943575
H      0.202386   -0.038095    2.873328
H     -0.747300    2.150461    2.696918
H     -0.030454    2.344085    1.000613
H     -2.454850   -1.259120    0.552489
H     -0.056997   -1.458674    1.145049
H     -2.119783    0.263328    1.843226
