27

C     -3.604273   -0.524823    0.140982
C      2.473102    1.507220   -0.394771
C     -1.402429   -1.257519   -0.495816
C     -1.765074    1.181278   -0.266876
C      0.012159   -0.987061   -0.865034
C     -0.273411    1.401658   -0.190360
C      2.877333   -0.850106    0.035903
C     -2.177995   -0.226699   -0.229992
C      1.947789    0.321411   -0.125971
C      0.491167    0.132384    0.012698
O      2.770878   -1.423421    1.292251
H     -3.678178   -1.554458    0.590732
H     -4.238474   -0.446849   -0.763991
H     -3.897790    0.212821    0.896278
H      3.561569    1.622505   -0.495365
H      1.892365    2.400664   -0.525313
H     -1.815599   -2.260972   -0.437689
H     -2.186645    1.708641   -1.162059
H     -2.239825    1.691252    0.615654
H      0.024019   -0.641233   -1.929153
H      0.630685   -1.867266   -0.698110
H     -0.011338    2.147694    0.581222
H      0.065784    1.841042   -1.174479
H      2.658476   -1.625843   -0.741357
H      3.920229   -0.544803   -0.120569
H      0.310957   -0.192132    1.067532
H      3.654521   -1.765385    1.623651
