27

C     -3.541879   -0.423632    0.302304
C      2.161697   -0.337936    0.884494
C      2.952195    0.406804   -0.147130
C      0.730587    0.203844    0.823287
C      2.270099    0.248233   -1.487595
C     -1.200432   -0.610497   -0.541616
C     -2.170814    0.213315    0.278480
C      0.152408    0.055033   -0.541819
N      1.106249   -0.613045   -1.379167
O     -2.272856    1.491887   -0.315492
H     -3.901594   -0.540427   -0.725943
H     -3.468292   -1.400217    0.801160
H     -4.215835    0.289697    0.815150
H      2.520189   -0.114531    1.918656
H      2.202803   -1.423689    0.763511
H      3.020155    1.479809    0.154866
H      3.999782    0.009509   -0.235946
H      0.809805    1.267943    1.153414
H      0.102259   -0.321436    1.570040
H      1.900152    1.262302   -1.811993
H      2.991433   -0.139590   -2.254138
H     -1.093473   -1.595455   -0.019992
H     -1.595838   -0.798278   -1.535777
H     -1.791158    0.386569    1.297242
H      0.004143    1.082250   -0.973773
H      1.346558   -1.566940   -1.082705
H     -3.018344    1.488480   -0.967816
