39

C     -4.035392    0.194314   -0.239273
C     -2.785358    0.271961    1.895459
C     -0.303503   -2.290096    1.234578
C      4.052740    0.159919   -0.547004
C      2.733085    0.083052   -1.301947
C      5.165504    0.656841   -1.444587
C     -1.607896    0.129815   -1.341204
C     -0.460148    1.411401    0.405095
C     -1.782969    1.207040   -0.258145
C     -1.813009   -0.863433   -0.180045
C      0.051455    0.195429    1.127588
C     -2.659235    0.194179    0.433973
C     -0.452656   -1.020602    0.438482
B      1.636830   -0.441370   -0.295182
Br     6.816628    0.737364   -0.444364
O      1.460080    0.092135    1.043749
O      0.444445   -1.152389   -0.645039
H     -4.233572   -0.800952   -0.713442
H     -4.843732    0.318300    0.517743
H     -4.138431    0.977014   -0.988154
H     -3.865323    0.342004    2.226144
H     -2.395093   -0.620821    2.432932
H     -2.334727    1.226110    2.300779
H      0.779444   -2.554913    1.227220
H     -0.616592   -2.222038    2.269726
H     -0.819108   -3.099547    0.686106
H      4.364016   -0.837746   -0.180386
H      3.993409    0.865437    0.301782
H      2.450045    1.123389   -1.573698
H      2.820830   -0.498532   -2.218192
H      5.342955   -0.058870   -2.291944
H      4.957599    1.660363   -1.866981
H     -2.469973    0.032313   -2.019755
H     -0.609162    0.094344   -1.785680
H      0.285043    1.619495   -0.418528
H     -0.437981    2.319582    1.039675
H     -2.246283    2.127454   -0.591442
H     -2.285633   -1.798973   -0.460963
H     -0.158332    0.221028    2.224925
