39

C     -2.982516   -1.226142    0.871601
C     -4.042168    0.760431   -0.150530
C     -0.016832   -0.211407    1.907991
C      3.870062   -0.282970    0.004924
C      3.233120    1.088799   -0.074680
C      5.346851   -0.097232    0.321661
C     -1.707489    1.212501   -1.182630
C     -0.972050   -1.191702   -1.267657
C     -2.134834   -0.256993   -1.332342
C     -1.636660    0.884694    0.324725
C      0.177886   -0.649679   -0.478282
C     -2.743882   -0.037736    0.060044
C     -0.281505    0.340408    0.539985
B      1.707877    0.942102   -0.399812
Br     6.201719   -1.821250    0.433043
O      1.114243   -0.034153   -1.305046
O      0.598305    1.445521    0.394624
H     -4.015276   -1.213914    1.335488
H     -2.303120   -1.417409    1.712748
H     -3.024670   -2.127805    0.190804
H     -4.435089    0.646761   -1.160725
H     -3.917044    1.818379    0.073276
H     -4.839451    0.380824    0.544428
H      0.085502   -1.336619    1.878260
H     -0.737059    0.122528    2.673322
H      0.992120    0.118703    2.301350
H      3.819291   -0.807924   -0.967755
H      3.391953   -0.908827    0.776574
H      3.423325    1.655073    0.847320
H      3.754801    1.648953   -0.893314
H      5.443274    0.439250    1.301528
H      5.815542    0.538615   -0.443592
H     -2.556893    1.855481   -1.455387
H     -0.747729    1.449823   -1.637019
H     -1.251510   -2.181036   -0.814283
H     -0.688897   -1.437877   -2.320294
H     -2.852648   -0.405845   -2.135912
H     -1.822327    1.803157    0.906523
H      0.733780   -1.505483    0.007480
