74

C      1.874548   -1.947416   -1.848667
C      1.234944   -1.886879    2.631384
C     -1.518621   -2.062554    1.543007
C      6.379967   -2.240116    0.971546
C      5.046095    3.121667    0.644427
C      3.790047    3.476509    1.388452
C      5.278157    1.632613    0.602451
C      2.568058    2.651694    1.029236
C     -4.114404    0.253764    0.870331
C     -5.033659   -0.134216   -0.221513
C     -2.729875    0.639570    0.449395
C      4.911584    0.685862   -0.193132
C      1.865044    2.543539   -0.027456
C      2.429548   -1.637067    0.543489
C     -6.260274    0.273496   -2.278554
C     -6.009395    2.118764   -0.714185
C      2.696172   -1.164410   -0.807147
C      1.361614   -1.306811    1.220858
C     -0.975833   -1.289470    0.383718
C     -5.294595    0.902590   -1.262648
C     -1.996396   -0.426986   -0.253240
C      5.135601   -0.800776   -0.245271
C     -7.489314   -0.153184   -1.566239
C     -7.473330    2.002456   -0.733878
C      0.660508    1.740839   -0.410537
C      4.131304   -1.462666   -1.164368
C      0.287538   -0.465032    0.755305
N     -8.063025    0.720000   -0.813828
O     -2.238157   -0.619231   -1.433881
O     -8.029402   -1.431963   -1.680644
O     -8.178200    3.040095   -0.679174
O     -0.342139    2.374260   -0.982696
O      4.363645   -1.079089   -2.503589
O      5.197857   -1.539850    0.866568
O      0.429751    0.420066   -0.263954
H      1.411354   -2.844893   -1.389009
H      2.506390   -2.329648   -2.676295
H      1.126705   -1.274291   -2.337144
H      0.397628   -1.451776    3.160433
H      1.323753   -2.978721    2.628323
H      2.150898   -1.539732    3.202823
H     -2.487688   -2.519240    1.164644
H     -0.887086   -2.914031    1.772400
H     -1.845916   -1.442317    2.396965
H      7.217343   -1.522194    0.986743
H      6.315137   -2.853724    1.903779
H      6.475116   -2.982196    0.135841
H      5.073688    3.708758   -0.253647
H      5.880188    3.613533    1.264622
H      4.072191    3.259179    2.480704
H      3.585781    4.560538    1.435094
H      5.932549    1.508249    1.546790
H      2.414114    2.104566    2.031230
H     -4.024551   -0.584545    1.588723
H     -4.541102    1.104311    1.435006
H     -6.025081   -0.372364    0.248579
H     -4.686455   -1.097116   -0.648966
H     -2.840139    1.545890   -0.204408
H     -2.217175    1.021856    1.357694
H      4.276288    0.833292   -1.143880
H      2.032119    3.113633   -1.025861
H      3.141068   -2.331231    1.047844
H     -6.478971    0.972949   -3.097601
H     -5.822074   -0.644269   -2.728895
H     -5.721201    2.333555    0.345095
H     -5.737210    3.042668   -1.270604
H      2.600069   -0.092492   -0.966595
H     -0.577066   -2.037203   -0.332911
H     -4.403936    1.257004   -1.789249
H      6.136872   -0.987265   -0.798171
H      4.299078   -2.554261   -1.042562
H     -0.078484    0.096375    1.684507
H     -8.601611   -1.810516   -0.926471
H      4.712052   -1.862396   -2.972702
