59

C      1.600651   -4.004155   -0.252556
C     -2.289368    2.902174   -1.706787
C     -3.744057   -1.308265   -1.657889
C      4.789960    3.214482   -0.372527
C      5.952302   -1.227331   -1.325883
C     -4.999362   -1.246939    3.283296
C      0.962635    2.032547    0.733569
C      2.250512    2.404761    0.358098
C      1.118679   -1.600702    0.214975
C      3.276426   -2.156771   -0.565826
C     -1.444165    0.617494   -1.336130
C     -2.296676   -0.443636    2.683496
C      2.011004   -2.564607   -0.202319
C     -2.566556    1.407447   -1.917718
C     -3.976430   -0.146475   -0.716633
C      0.598729    0.703563    0.682258
C      1.495560   -0.257834    0.263801
C     -1.705797    0.254321    0.076575
C     -1.002362   -0.052113    2.363904
C      3.165330    1.465300   -0.063449
C      3.656752   -0.819609   -0.518865
C     -3.286086   -0.482670    1.694247
C     -2.990557   -0.134521    0.394854
C     -0.726642    0.290997    1.064850
C      2.765017    0.146083   -0.101537
N     -3.862972    1.128934   -1.389525
O      0.004535    0.001035    3.307038
O      4.442251    1.852068   -0.433439
O      4.925064   -0.402266   -0.882099
O     -4.569575   -0.866076    1.988205
H      0.893876   -4.206312   -1.076726
H      1.056304   -4.282628    0.697053
H      2.468323   -4.668079   -0.302203
H     -1.548036    3.198593   -2.504098
H     -3.230598    3.447786   -1.987340
H     -1.943637    3.121818   -0.696498
H     -2.995756   -2.036112   -1.236605
H     -3.409220   -0.956104   -2.652354
H     -4.677886   -1.885166   -1.803042
H      4.817578    3.597217    0.675427
H      5.757108    3.443712   -0.818928
H      4.033923    3.869464   -0.890264
H      5.924669   -1.242126   -2.450094
H      5.902407   -2.264903   -0.995303
H      6.918046   -0.753499   -1.049930
H     -4.239210   -1.890605    3.799699
H     -5.197878   -0.346364    3.911147
H     -5.919357   -1.860530    3.227070
H      0.284011    2.808231    1.056413
H      2.511936    3.458351    0.407666
H      0.114130   -1.884163    0.508726
H      3.965955   -2.898101   -0.887832
H     -1.148453   -0.266202   -1.951846
H     -0.526215    1.270209   -1.320260
H     -2.521379   -0.714672    3.701443
H     -2.638266    1.295849   -3.036701
H     -5.006236   -0.214462   -0.324701
H     -4.124791    1.858939   -0.681904
H      0.923848    0.292623    3.015998
