21

C     -0.982809    0.070364   -1.942995
C     -1.671708   -0.981911    0.250046
C      1.205864   -1.221241    0.993661
C      0.810139   -0.315653   -0.131392
C      1.853616   -0.724131    2.015555
C      0.026527    0.943116    0.262147
C      0.385886    2.211957   -0.388439
C     -0.628572   -0.158690   -0.477932
Cl     2.335081   -1.735253    3.346818
Cl     2.266413    0.995520    2.085914
Cl     0.825526    2.349024   -2.078294
O      0.388805    3.250793    0.255958
H     -0.086769    0.023789   -2.592892
H     -1.661916   -0.736693   -2.305912
H     -1.541164    1.004063   -1.998361
H     -1.602020   -0.773161    1.357099
H     -2.674473   -0.665458   -0.070199
H     -1.519111   -2.070942    0.059921
H      0.961310   -2.272324    0.965564
H      1.539322   -0.200038   -0.944607
H     -0.229949    1.006869    1.338341
