42

C     -2.336451   -1.877144    0.545181
C     -0.928136   -0.405334    1.838034
C     -3.060924    1.066121    0.238838
C     -1.071341   -1.356218   -1.747036
C     -2.233694   -0.422016   -1.623792
C      1.980731    0.778114    1.030867
C      2.653793   -0.277118   -0.919831
C      3.373681    1.420793    1.156069
C      3.903948   -0.372064   -0.085979
C     -0.198838   -1.036569   -0.512493
C      0.431530    0.276490   -0.823415
C     -0.700961    1.241271   -0.632940
C     -1.340741   -0.761048    0.472790
C     -1.923112    0.382047   -0.348542
N      1.675166    0.606954   -0.299648
O     -0.486476    2.197582    0.320826
O      4.253347    0.964148    0.213650
H     -3.401613   -1.507470    0.604700
H     -2.207373   -2.424660    1.529356
H     -2.300622   -2.639767   -0.211966
H     -1.723921   -0.753518    2.571915
H     -0.821563    0.648977    2.063531
H     -0.065067   -1.055067    2.116208
H     -3.688596    1.524710   -0.574853
H     -3.673167    0.486797    0.929143
H     -2.694417    1.957977    0.825584
H     -1.258748   -2.395530   -1.908093
H     -0.457213   -1.022779   -2.640203
H     -3.167320   -0.993114   -1.473776
H     -2.298869    0.271973   -2.489197
H      1.342696    1.471754    1.615201
H      2.071264   -0.147223    1.628711
H      2.919205    0.173352   -1.896723
H      2.202047   -1.266094   -1.115390
H      3.326092    2.514200    1.116474
H      3.812299    1.172433    2.167237
H      3.795175   -0.979652    0.820367
H      4.688819   -0.845975   -0.715675
H      0.440480   -1.844606   -0.237644
H      0.630134    0.290171   -1.946869
H     -0.975119    1.801467   -1.576119
H     -0.486125    3.135634   -0.024497
