37

C      0.362501   -2.884528    0.500619
C     -3.268153    1.421886    0.120963
C      4.331556    0.273508   -0.569053
C     -0.517223    0.918007   -1.472158
C     -0.632852    2.059917    0.685176
C     -1.624946   -1.911098   -0.437189
C     -2.554147   -0.791824   -0.812819
C      2.390616    0.003211    1.107801
C      1.454381   -0.149391    0.196772
C     -0.470625   -1.686888    0.182186
C     -2.272535    0.315534    0.202864
C      3.783925    0.208581    0.790907
C      0.030224   -0.358683    0.567362
C     -0.854958    0.741576    0.003423
O      4.623177    0.346877    1.742212
H     -0.132492   -3.499625    1.295602
H      0.457862   -3.532763   -0.377808
H      1.384348   -2.597164    0.818066
H     -3.514687    1.831793    1.134762
H     -4.226308    0.987974   -0.262944
H     -2.974869    2.255403   -0.522520
H      3.612027    0.454713   -1.363231
H      4.911340   -0.679860   -0.744043
H      5.132800    1.070060   -0.575026
H     -1.358419    1.422943   -2.009214
H     -0.217473   -0.022808   -1.949315
H      0.357751    1.614796   -1.530696
H     -1.162976    2.093913    1.652787
H     -1.078012    2.845237    0.007269
H      0.443228    2.326563    0.766792
H     -1.954955   -2.914265   -0.703093
H     -3.605768   -1.084830   -0.776504
H     -2.262758   -0.468751   -1.830714
H      2.065532   -0.032285    2.138084
H      1.728100   -0.121998   -0.851428
H     -2.342180   -0.180922    1.203403
H     -0.043031   -0.274806    1.670706
