42

C      5.479403    0.301051    0.255311
C     -1.605485   -2.663329   -0.901524
C     -2.452601   -2.246833    1.336515
C     -1.143548    2.990832    0.801687
C      4.110392    0.470825   -0.360979
C      3.324496   -0.810098   -0.129136
C     -2.897128    1.469075   -0.108594
C     -2.716661   -0.004792   -0.278712
C     -0.596065    1.562367   -1.133448
C     -1.326484   -1.891491    0.351361
C     -1.679866    2.277859   -0.428333
C     -1.345129   -0.415860    0.204869
C     -0.332797    0.148431   -0.722493
C      1.964791   -0.694714   -0.741278
O      1.724535   -1.271181   -1.830752
O      0.959017    0.034174   -0.139084
H      5.489654    0.707549    1.280735
H      5.811019   -0.753302    0.204267
H      6.246476    0.875291   -0.314559
H     -1.756419   -3.730030   -0.582798
H     -0.804894   -2.676064   -1.640139
H     -2.594008   -2.337134   -1.299370
H     -2.642313   -1.413905    2.026727
H     -3.369391   -2.515531    0.756351
H     -2.175911   -3.186157    1.894241
H     -0.040457    3.112022    0.743319
H     -1.556513    4.027866    0.883952
H     -1.455358    2.454619    1.719384
H      3.569463    1.335488    0.090975
H      4.236908    0.711912   -1.428946
H      3.888398   -1.630337   -0.604139
H      3.269328   -0.997733    0.955526
H     -3.181370    1.657416    0.957249
H     -3.783661    1.758630   -0.710654
H     -3.481464   -0.504518    0.366870
H     -2.858622   -0.283151   -1.321154
H     -0.743944    1.613173   -2.241242
H      0.348675    2.141975   -0.961743
H     -0.395293   -2.275924    0.812075
H     -2.023587    3.106000   -1.114813
H     -1.159073    0.022780    1.214130
H     -0.304511   -0.477254   -1.648026
