29

C     -2.788244   -0.561385    1.214377
C     -3.119528    0.761401   -0.773269
C      3.402471    0.067595   -0.229974
C      1.281529    1.332304   -0.171212
C     -0.201939    1.244559   -0.293716
C      1.401170   -1.005317    0.643717
C     -2.237087   -0.013194    0.154190
C      1.899809   -0.030106   -0.381369
C     -0.767957   -0.139564   -0.155426
C     -0.070988   -0.957435    0.884458
O     -0.541187   -2.268980    0.837112
H     -3.846524   -0.444002    1.391092
H     -2.235090   -1.142721    1.951092
H     -2.555164    1.464753   -1.403762
H     -3.742799    0.057911   -1.395165
H     -3.801685    1.397012   -0.140806
H      3.724279    1.123810   -0.291609
H      3.738565   -0.385048    0.728260
H      3.891076   -0.516721   -1.036452
H      1.603842    1.723869    0.810945
H      1.690388    1.999892   -0.978195
H     -0.536111    1.684405   -1.279226
H     -0.637791    1.854998    0.548108
H      1.917721   -0.752514    1.615263
H      1.746639   -2.023584    0.333441
H      1.630335   -0.402030   -1.383023
H     -0.704516   -0.628742   -1.156033
H     -0.303866   -0.504562    1.874626
H      0.162652   -2.936605    0.765376
