29

C     -2.539286    1.108307    0.232462
C     -2.678361   -0.966823    1.421745
C      2.775830    0.827010    0.752123
C      1.546611   -1.099008   -0.098442
C      0.249120   -0.970683    0.653764
C      0.869184    1.228020   -0.781307
C     -2.011919   -0.063909    0.401292
C      2.021915    0.305260   -0.437243
C     -0.832739   -0.543495   -0.343027
C     -0.272364    0.380518   -1.342289
O      0.274590   -0.324902   -2.438130
H     -3.422870    1.388564    0.819708
H     -2.182271    1.858190   -0.440378
H     -2.999243   -0.334498    2.253149
H     -3.555792   -1.436999    0.941442
H     -1.956145   -1.748320    1.724114
H      3.142720    1.842969    0.487301
H      2.127602    0.818369    1.632525
H      3.672418    0.187380    0.885883
H      1.412218   -1.693611   -1.001357
H      2.328501   -1.605186    0.535659
H     -0.004691   -1.918008    1.154899
H      0.295294   -0.181160    1.430296
H      1.156659    1.941819   -1.558158
H      0.549139    1.723807    0.146659
H      2.677432    0.244478   -1.319109
H     -1.178619   -1.470272   -0.891782
H     -1.034134    1.067276   -1.728461
H     -0.430799   -0.565095   -3.093336
