30

C      4.377290    0.353702   -0.527085
C     -2.384763    1.954968    0.168596
C      2.968560    0.466268    0.069428
C      2.387732   -0.925122    0.038831
C      0.996321   -1.001826    0.591108
C      0.019164   -0.133248   -0.170235
C     -3.632386   -0.210213    0.430527
C     -2.409222    0.502836   -0.165427
C     -1.321597   -0.296614    0.473477
C     -3.197276   -1.615132    0.280537
O     -3.955866   -2.596303    0.154314
O     -1.814744   -1.638495    0.305838
H      5.058721    1.097743   -0.056948
H      4.770559   -0.637574   -0.270323
H      4.333352    0.559438   -1.613716
H     -3.453209    2.291876    0.278466
H     -1.991566    2.522485   -0.713268
H     -1.821670    2.178156    1.090488
H      2.374340    1.211584   -0.455210
H      3.124551    0.816425    1.109595
H      3.032347   -1.546641    0.713391
H      2.480145   -1.390389   -0.962449
H      0.670453   -2.047802    0.549699
H      1.043556   -0.717943    1.662130
H     -0.007974   -0.435872   -1.228067
H      0.299749    0.922315   -0.132133
H     -3.625876    0.055078    1.506135
H     -4.550913    0.038771   -0.095043
H     -2.476198    0.327214   -1.259744
H     -1.293581   -0.105689    1.545832
