70

C     -5.709101    1.733282    0.685515
C      5.870078    0.152769   -0.356247
C      5.613099   -1.273037   -0.456676
C     -9.681881   -2.106656    0.937479
C     -9.361911   -0.800598    1.180968
C     -8.741841   -2.910293    0.332879
C      4.911619    1.035341   -0.488698
C      6.303855   -1.931006   -1.599882
C     -8.098587   -0.284062    0.822409
C     -7.520817   -2.386531   -0.006460
C      3.490067    0.785509   -0.746959
C      7.769295   -1.824682   -1.716388
C      2.554733    1.449227    2.891098
C      1.065263    1.179925    2.814809
C     -2.519445   -1.002042   -1.650088
C     -1.502734   -0.072775   -1.715017
C      2.209357   -0.514119    1.702584
C     -4.902235   -1.407923   -0.834151
C     -2.901040    1.452923   -0.574550
C     -7.148693   -1.058372    0.222501
C      3.140673    0.710628    1.685690
C     -3.731573   -0.723731   -1.052827
C      0.910108    0.311769    1.610360
C     -1.690329    1.177783   -1.169629
C      2.715830    1.368463    0.418520
C     -5.824307   -0.590929   -0.153850
C     -3.918269    0.516869   -0.512040
C      8.347328   -0.519484   -2.025712
C      1.231159    1.071960    0.338063
N      0.535909    2.306225    0.194046
N     -5.180416    0.559248    0.016410
O      7.767317    0.495443   -2.459955
O      9.732710   -0.374582   -1.811615
O     -1.150485    3.749389   -1.160809
O      0.355335    2.367862   -2.461613
S     -0.435740    2.421824   -1.210747
H     -5.918780    1.465861    1.734429
H     -4.866662    2.485679    0.780800
H     -6.504221    2.247463    0.136531
H      6.911069    0.482255   -0.108865
H      5.995061   -1.827788    0.469175
H      4.518763   -1.515191   -0.562508
H    -10.631276   -2.550047    1.190668
H    -10.084088   -0.160869    1.651357
H     -8.996607   -3.954206    0.138436
H      5.204330    2.096496   -0.395753
H      6.041200   -3.031320   -1.518576
H      5.806277   -1.636924   -2.574851
H     -7.918389    0.753512    1.035628
H     -6.805689   -3.035118   -0.475363
H      3.183179   -0.210003   -1.020467
H      3.228252    1.443614   -1.642635
H      8.303932   -2.298101   -0.840427
H      8.087279   -2.508228   -2.571868
H      2.992719    0.937502    3.794577
H      2.805109    2.507086    2.905521
H      0.475987    2.117180    2.780716
H      0.716518    0.580625    3.698424
H     -2.411534   -2.006026   -2.070074
H     -0.573026   -0.308421   -2.182896
H      2.355825   -1.139593    0.819472
H      2.304841   -1.013349    2.666448
H     -5.077035   -2.429346   -1.147578
H     -3.055484    2.428362   -0.146188
H      4.177727    0.459781    1.790100
H      0.028655   -0.300420    1.562890
H      2.919320    2.458039    0.420716
H      0.990071    0.422598   -0.526345
H      1.113000    3.142944    0.370108
H     10.179345    0.531939   -1.851022
