71

C     10.014474   -0.621983   -3.044826
C     10.477236    1.583974   -1.982324
C    -11.602490    1.779163   -1.938619
C     -8.386077   -0.160056   -0.844699
C     -7.390397    0.462865   -0.224382
C      5.743241    0.135546    0.390893
C      6.042339   -1.134352    0.311985
C    -10.851606   -0.564323   -1.343716
C     -5.638578   -1.413490    0.007304
C      4.449835    0.530869    2.491883
C     -3.110079    0.820348    0.200792
C      1.520750    0.159002    3.145951
C     -1.471502   -0.317917    2.755011
C      8.700691    0.139871   -1.055145
C     10.072452    0.143468   -1.734719
C    -10.513073    0.725843   -2.002975
C     -9.803127    0.332293   -0.747568
C     -5.978504   -0.003124   -0.303624
C      4.513044    0.715479    0.962208
C     -5.307140   -0.375534    0.998225
C      3.451385   -0.109843    1.526100
C     -3.935492    0.156225    1.237592
C      2.048784    0.423571    1.719958
C     -2.793083   -0.577673    0.580837
C      0.902131   -0.468615    1.880331
C     -1.612878   -0.936383    1.388798
C     -0.487930    0.003480    1.615698
C      7.258132   -1.694861   -0.253355
N      8.238374   -1.139421   -0.761941
O      7.328165   -3.129446   -0.212431
H      9.460520   -1.576160   -2.847807
H     11.058078   -0.897176   -3.303738
H      9.498285   -0.051521   -3.833426
H     11.574940    1.672882   -2.060148
H     10.034617    2.246716   -1.214791
H     10.070930    1.917326   -2.966557
H    -12.561793    1.346978   -1.567684
H    -11.801682    2.123666   -2.974674
H    -11.319340    2.622364   -1.263741
H     -8.131700   -1.041769   -1.425966
H     -7.647486    1.347493    0.358348
H      6.499347    0.819060   -0.014254
H      5.280248   -1.823653    0.722567
H    -11.833782   -0.683418   -0.876804
H    -10.485029   -1.479665   -1.864064
H     -4.920963   -1.930113   -0.636520
H     -6.539293   -2.056585    0.209935
H      4.142910    1.411987    3.077497
H      5.134345   -0.168234    2.971015
H     -2.394715    1.628825    0.516819
H     -3.546445    1.034477   -0.779501
H      1.016797    1.015731    3.601056
H      2.049524   -0.552997    3.776555
H     -1.104766   -0.987964    3.571023
H     -2.089595    0.487348    3.128909
H      8.830160    0.827546   -0.177762
H      8.039638    0.705475   -1.773822
H     10.838606   -0.318328   -1.108607
H     -9.866812    0.754518   -2.912362
H    -10.054959    0.932473    0.156602
H     -5.417467    0.449017   -1.130345
H      4.316357    1.775348    0.625369
H     -5.967639   -0.379047    1.914139
H      3.513974   -1.207665    1.400293
H     -3.812662    0.600805    2.252606
H      1.852042    1.420618    1.293865
H     -3.052671   -1.320845   -0.220068
H      1.087277   -1.548953    1.710937
H     -1.250315   -2.018639    1.324057
H     -0.544583    1.043022    1.195564
H      8.166028   -3.605920   -0.547025
