67

C     -1.844296    1.821860   -1.549089
C     -2.483054    0.904188   -2.443197
C      7.688916    1.618989   -3.824375
C      6.492899    1.338994   -4.469352
C      7.857795    1.275763   -2.501905
C     -1.286860    1.504766   -0.418602
C     -3.883935    1.206878   -2.814248
C      5.492769    0.718338   -3.762864
C      6.821407    0.648846   -1.822946
C     -1.206247    0.182566    0.132717
C     -4.903055    1.280414   -1.765776
C     -3.506760    0.010720    3.196722
C     -3.590267   -1.489334    3.360739
C      2.543997   -1.796740   -0.045361
C      3.389486   -0.576117    1.774702
C      1.554472   -2.356233    0.781801
C      2.419082   -1.128662    2.571552
C     -3.852190   -0.958380    1.107676
C      5.651679    0.371594   -2.440432
C     -3.190931    0.269665    1.721617
C     -3.139936   -1.976501    2.013134
C      3.457509   -0.916090    0.428784
C      1.488457   -2.020988    2.102720
C     -1.761944   -0.027359    1.503095
C     -4.861535    2.302314   -0.751627
C     -1.702330   -1.531293    1.860392
C      4.551350   -0.300579   -1.730132
N      4.464583   -0.298247   -0.327462
N     -1.086881   -1.648746    3.148876
O     -4.048933    3.226533   -0.681572
O     -5.831551    2.276118    0.280024
O      3.701734   -0.870480   -2.442440
O     -0.080645   -4.091147    2.795769
O      0.839305   -2.672573    4.575256
S      0.290918   -2.681983    3.159639
H     -1.793218    2.891005   -1.875492
H     -2.495962   -0.166290   -2.096407
H     -1.904609    0.928547   -3.433576
H      8.480361    2.111353   -4.381598
H      6.334631    1.599892   -5.511867
H      8.771674    1.480789   -1.976026
H     -0.833825    2.330743    0.166246
H     -3.936381    2.110485   -3.511047
H     -4.225451    0.378729   -3.535699
H      4.564415    0.518636   -4.317656
H      6.990069    0.392585   -0.796977
H     -0.072490   -0.022856    0.255460
H     -1.492565   -0.664667   -0.531116
H     -5.924157    1.320932   -2.305384
H     -4.983053    0.250488   -1.268075
H     -2.763571    0.495683    3.854872
H     -4.513188    0.427876    3.407808
H     -2.855659   -1.872097    4.105414
H     -4.607031   -1.847650    3.538278
H      2.551548   -2.104258   -1.074126
H      4.113080    0.133045    2.192215
H      0.861390   -3.057680    0.320842
H      2.424249   -0.814305    3.630297
H     -3.540413   -1.107811    0.059685
H     -4.930110   -0.968728    1.280169
H     -3.551650    1.219199    1.385011
H     -3.336416   -2.996203    1.771470
H     -1.177720    0.567730    2.265684
H     -1.184079   -2.111924    1.071565
H      5.255961    0.233778    0.161285
H     -0.747088   -0.721497    3.514267
H     -5.923750    3.049347    0.910641
