57

C     -7.973106    0.066548    0.906929
C      3.988570    0.373992    0.052078
C      3.670711    0.010111    1.436657
C      3.181158    0.158566   -0.957500
C      4.708144   -0.989138    1.925205
C      1.856837   -0.483440   -0.775181
C      6.076226   -0.375488    1.867187
C      0.562938    2.915401   -1.495611
C     -0.780059    2.359929   -2.000331
C     -5.713118   -0.857985   -0.499317
C     -4.391029   -0.800462    1.472884
C     -4.589696   -1.305969   -1.173919
C     -3.284135   -1.249628    0.768916
C     -0.471274    1.868079    0.275154
C      0.876360    1.820661   -0.463979
C     -1.285956    1.431807   -0.959415
C     -5.616791   -0.598102    0.851651
C     -3.371265   -1.508477   -0.571957
C      0.827392    0.522818   -1.237356
C      7.102132   -1.360811    2.374579
C     -0.592948    0.061941   -1.099270
N     -1.126442   -0.705208   -2.148874
O      6.914861   -1.887492    3.484846
O      8.209741   -1.667406    1.625004
O     -1.176329   -2.915424   -0.623675
O     -2.452564   -2.888184   -2.685984
O     -6.729640   -0.149317    1.523763
S     -2.021773   -2.037825   -1.516908
H     -8.253428   -0.697783    0.160891
H     -7.992513    1.057477    0.352307
H     -8.784360    0.150526    1.688667
H      4.962347    0.863358   -0.180856
H      2.654652   -0.323808    1.607757
H      3.812850    0.925677    2.101335
H      3.469002    0.459640   -1.992610
H      4.479910   -1.430956    2.898299
H      4.687574   -1.825305    1.171486
H      1.822433   -1.283437   -1.600376
H      1.655930   -0.982181    0.146666
H      6.393363   -0.071177    0.870670
H      6.155256    0.505361    2.545356
H      0.381956    3.864558   -0.944471
H      1.299742    2.975423   -2.287566
H     -0.548895    1.856074   -2.957797
H     -1.482209    3.187968   -2.240285
H     -6.622859   -0.727127   -1.050377
H     -4.360497   -0.589193    2.526463
H     -4.691301   -1.499835   -2.232709
H     -2.376036   -1.371366    1.342444
H     -0.529742    1.112922    1.073479
H     -0.722796    2.884218    0.577253
H      1.713323    2.011469    0.152875
H     -2.344406    1.383028   -0.799749
H      1.008329    0.704333   -2.329678
H     -0.790815   -0.424990   -0.122689
H     -0.489377   -0.965101   -2.903277
H      9.093621   -1.918060    2.070920
