71

C     11.040082    0.988231    2.278580
C     10.839364   -0.729526    0.544165
C    -11.031842    1.437902    2.155127
C     -8.394022   -0.464321    0.365280
C     -7.961369    0.124521   -0.733543
C      4.852973   -0.166864    1.450623
C      6.157261    0.064082    1.387260
C    -10.343830   -1.068653    1.936835
C     -5.574223    0.741067   -0.327028
C      4.353681    0.296175   -0.957272
C     -4.159222   -0.635365   -2.743847
C      1.779599   -0.019422   -2.533360
C     -1.174871   -0.402114   -3.161006
C      8.832909    0.649074    1.121636
C     10.337502    0.602237    1.017470
C     -9.992651    0.338091    2.141298
C     -9.821329   -0.303799    0.778168
C     -6.572360    0.047771   -1.256763
C      3.904222    0.487448    0.487154
C     -5.509251   -0.709312   -0.588955
C      3.074919   -0.341463   -0.388066
C     -4.335520   -1.205807   -1.393484
C      1.830354    0.208047   -1.005946
C     -3.170125   -0.344773   -1.600095
C      0.762789   -0.631713   -1.544484
C     -1.797133   -0.956680   -1.873901
C     -0.616272   -0.110016   -1.739748
C      7.114329   -0.541806    2.292591
N      8.361247   -0.255874    2.152443
O      6.764196   -1.414194    3.303903
H     11.142463    0.153088    3.006080
H     12.020022    1.424437    2.015488
H     10.466008    1.783857    2.810951
H     10.133209   -1.210975   -0.183363
H     11.110444   -1.420276    1.374322
H     11.785585   -0.550475   -0.026345
H    -11.573816    1.507242    3.111295
H    -10.474152    2.407338    2.034355
H    -11.705046    1.372929    1.282010
H     -7.708589   -1.052686    0.948919
H     -8.683032    0.710272   -1.291755
H      4.518198   -0.843503    2.224834
H      6.496846    0.734156    0.622372
H    -11.401348   -1.405919    1.933411
H     -9.688994   -1.810067    2.475090
H     -5.909114    1.052206    0.684832
H     -4.931089    1.478167   -0.806149
H      5.193271   -0.354203   -1.192495
H      4.265837    1.206971   -1.554658
H     -4.685180    0.227871   -3.145156
H     -3.853221   -1.355263   -3.534076
H      1.488857    0.864372   -3.098379
H      2.465051   -0.747187   -2.973691
H     -0.672277   -1.164801   -3.754727
H     -1.634168    0.451576   -3.656333
H      8.510700    1.684040    1.346198
H      8.439630    0.386517    0.112864
H     10.621826    1.361753    0.236396
H     -9.081946    0.601303    2.720338
H    -10.531978   -0.094093   -0.023882
H     -6.504844    0.297997   -2.350832
H      3.488710    1.460226    0.795024
H     -5.848222   -1.390183    0.257152
H      3.137414   -1.464219   -0.332342
H     -4.094351   -2.298931   -1.263489
H      1.562713    1.228372   -0.641093
H     -3.118566    0.715360   -1.278067
H      0.828091   -1.737684   -1.386078
H     -1.788085   -2.048719   -1.714758
H     -0.777532    0.924003   -1.370206
H      7.439268   -1.646610    4.020913
