50

C     -5.593315    1.726911   -1.501811
C     -5.731583    0.512414    0.481346
C      7.828399    1.284821    0.188698
C      3.759450    0.443304    0.671832
C      3.576399   -0.062614   -1.630050
C     -2.688639   -3.422439    0.332942
C      5.121476    0.723876    0.504608
C      4.935980    0.215242   -1.807660
C     -2.665989   -2.045340    0.416183
C     -3.571232    0.868551   -0.527110
C     -2.933843    0.542384    0.768792
C     -0.364409   -3.586560    0.643763
C      2.985226    0.049792   -0.395343
C     -1.571135   -4.220011    0.440565
C      5.715319    0.612609   -0.727821
C     -1.457179   -1.417497    0.619188
C     -0.311590   -2.221579    0.730409
C      0.798373    0.986809    0.080384
C      1.548125   -0.240546   -0.210434
C     -0.506782    0.922206    0.690723
Cl    -1.665790   -5.979730    0.325123
N     -4.898999    1.381926   -0.279861
N     -1.594427    0.003844    0.687031
O      1.628014    1.826550    0.861304
O     -0.770410    1.948576    1.427478
O      7.064708    0.885387   -0.919273
S      1.329864   -1.568209    0.996037
H     -5.318688    1.115231   -2.361080
H     -6.697835    1.637574   -1.338814
H     -5.403745    2.815965   -1.670454
H     -6.793549    0.876543    0.348507
H     -5.759350   -0.540473    0.102094
H     -5.561494    0.556900    1.580904
H      8.833810    1.654920   -0.096482
H      7.317791    2.137307    0.695311
H      7.948827    0.471227    0.948507
H      3.390000    0.558596    1.680957
H      3.040308   -0.365233   -2.518191
H     -3.645694   -3.927797    0.171632
H      5.729826    1.033873    1.346669
H      5.403626    0.127162   -2.780225
H     -3.546849   -1.440228    0.332732
H     -3.506295    0.160845   -1.344551
H     -3.015666    1.778882   -0.935172
H     -3.576096    0.090226    1.551587
H     -2.764093    1.561382    1.263241
H      0.558777   -4.144282    0.738608
H      0.684035    1.557933   -0.891840
H      1.157084   -0.648496   -1.192431
H      1.559260    2.761267    0.603189
