42

C     -5.462136   -0.786673   -1.147433
C      6.164282   -1.247714    1.866101
C     -4.065068   -0.914069   -0.606645
C     -3.203171    0.741840    1.668289
C     -1.887864    0.142634    1.217468
C     -3.877992    1.224358    0.395735
C      3.116223    1.177852   -1.260357
C      5.002939    0.455540    0.005313
C     -1.259769   -0.928590   -0.953841
C      4.444255    1.307208   -0.914032
C     -1.984780    0.195714   -0.265380
C      2.302211    0.187947   -0.695667
C      4.244969   -0.530614    0.585970
C      2.909295   -0.644035    0.223114
C      0.911795    0.081558   -1.076754
Br     5.537379    2.673525   -1.705217
N      0.150019   -0.813071   -0.573497
N     -3.349046    0.307757   -0.576051
O      2.136664   -1.656309    0.819825
O      0.382618    0.962378   -2.006448
O      4.810271   -1.401090    1.524508
H     -6.034612    0.067712   -0.779881
H     -5.488117   -0.775329   -2.257209
H     -6.017090   -1.712132   -0.855205
H      6.525318   -2.112397    2.478074
H      6.328594   -0.322145    2.469713
H      6.845750   -1.194395    0.993243
H     -4.156668   -1.431127    0.386884
H     -3.535057   -1.666668   -1.257786
H     -2.976875    1.633155    2.290938
H     -3.839308    0.014247    2.213812
H     -1.009237    0.726044    1.625134
H     -1.732090   -0.882626    1.608121
H     -4.970931    1.242696    0.484872
H     -3.472606    2.241829    0.120268
H      2.662203    1.840958   -1.982784
H      6.059878    0.558535    0.281908
H     -1.587523   -1.920980   -0.552036
H     -1.355304   -0.924309   -2.031158
H     -1.478397    1.150657   -0.589377
H      2.562928   -2.271841    1.489747
H     -0.353948    0.718451   -2.662280
