47

C      3.083926    1.315571    1.517715
C     -0.706610    4.119396    2.218151
C     -3.642185   -3.217189   -0.550332
C     -4.527380   -2.362874    0.101169
C     -2.342580   -2.808986   -0.767135
C     -4.058597   -1.135319    0.501084
C      0.255872   -1.685858    0.680156
C      1.105738   -2.586469   -0.163337
C      0.463173    0.244208   -2.327022
C      2.575550   -0.838283   -0.759281
C      3.188842    1.440431    0.035492
C      1.153884    1.188420   -1.304002
C      2.458398    0.634198   -0.957526
C     -1.878107   -1.582821   -0.363935
C     -2.761537   -0.729045    0.281776
C      0.275746   -1.056339   -1.577389
C      0.148400    1.394393   -0.246924
C     -0.796219    0.484846    0.002420
C      0.135982    2.621467    0.530903
C     -0.554951   -0.917989   -0.359117
N     -2.114520    0.544431    0.524286
N      1.511091   -1.641510   -1.220504
O      3.993405    2.336994   -0.310799
O      1.020683    3.514814    0.300333
O     -0.776943    2.897411    1.517281
H      2.724091    0.332309    1.841076
H      4.133726    1.374039    1.967181
H      2.559876    2.151462    2.011000
H      0.130630    4.128803    2.946381
H     -0.619033    4.984545    1.556100
H     -1.661514    4.228965    2.784615
H     -4.033272   -4.174829   -0.856529
H     -5.558548   -2.642492    0.294828
H     -1.700541   -3.535395   -1.288184
H     -4.759877   -0.463851    1.014780
H      0.894360   -0.950795    1.186448
H     -0.388188   -2.247965    1.387882
H      0.598907   -3.410099   -0.649759
H      2.003905   -2.970804    0.366768
H     -0.469738    0.683389   -2.675263
H      1.149458    0.060307   -3.159268
H      2.731220   -1.020458    0.325990
H      3.517135   -1.236815   -1.221317
H      1.271450    2.136710   -1.919817
H      3.086085    0.810428   -1.934877
H     -0.250614   -1.751308   -2.282947
H     -2.570578    1.339956    1.001451
