38

C      3.779225   -1.571402    1.407084
C     -3.209362   -1.583170   -0.958887
C      3.560589   -1.863742    0.223958
C     -2.015834   -1.229525   -0.137216
C      3.312025   -2.199001   -1.095949
C      2.268722   -1.698717   -1.742087
C     -1.122103    1.656115    1.777080
C      0.176655    1.601623    1.930142
C     -1.735741    2.251385    0.607801
C      1.118436    2.120815    0.959892
C      1.228765   -0.807058   -1.365780
C     -2.365882    1.189301   -0.283556
C      1.939814    0.900094    0.404287
C     -1.350524    0.075235   -0.530314
C      0.994421   -0.122082   -0.127114
Br    -3.877889    0.461241    0.720313
Cl     3.126512    1.554432   -0.664887
O     -0.258473    0.368210    0.124346
H      3.965975   -1.334010    2.394616
H     -2.960187   -2.409417   -1.692696
H     -3.996680   -2.001348   -0.266288
H     -3.679307   -0.745783   -1.492751
H     -2.401588   -1.092530    0.927881
H     -1.265950   -2.037613   -0.104903
H      4.000431   -2.888036   -1.611184
H      2.264760   -2.107142   -2.807687
H     -1.766081    1.242284    2.596428
H      0.595832    1.101603    2.821726
H     -1.204562    3.035280    0.099029
H     -2.667540    2.812259    1.023194
H      1.895901    2.700973    1.501957
H      0.769321    2.748939    0.159731
H      0.257047   -1.354240   -1.690591
H      1.216626   -0.039273   -2.263848
H     -2.757201    1.635436   -1.193008
H      2.417006    0.576463    1.340789
H     -1.281984    0.021079   -1.656200
H      1.028826   -0.968682    0.664690
