41

C      6.667645   -0.846632   -0.012113
C     -2.933534    1.717705    0.816995
C     -4.498648    0.098411   -0.283007
C     -2.812992    1.394854   -1.605555
C     -1.551756   -0.920815    1.769823
C     -2.348181   -2.216289   -0.846374
C      2.528994    1.529204    0.150735
C      1.210550    1.529819   -0.005053
C      1.912013   -0.643134   -0.397764
C      5.295560   -0.596723    0.554118
C      2.991736    0.132779    0.326198
C      0.672536    0.144335    0.051173
C     -3.114979    0.692498   -0.292043
O      5.026206   -0.836514    1.763808
O      4.269649   -0.093407   -0.226042
O     -0.373189   -0.067459   -0.806582
Si    -1.801237   -0.607855   -0.051621
H      6.727498   -1.796262   -0.544014
H      6.893668    0.039403   -0.635354
H      7.419355   -0.854045    0.803099
H     -2.972299    1.175969    1.770045
H     -1.896319    2.115174    0.702478
H     -3.706123    2.490242    0.752781
H     -4.682442   -0.300913    0.726431
H     -4.544728   -0.656903   -1.075525
H     -5.215937    0.917287   -0.444649
H     -2.628270    0.629122   -2.391384
H     -3.614151    2.096237   -1.872244
H     -1.823118    1.909895   -1.459735
H     -1.200739   -0.045669    2.319802
H     -2.552702   -1.183580    2.196835
H     -0.917279   -1.814388    1.940223
H     -3.192528   -2.637147   -0.270926
H     -1.526055   -2.931510   -0.854691
H     -2.694695   -1.996795   -1.867698
H      3.158448    2.413464    0.148578
H      0.632463    2.431604   -0.151299
H      1.852737   -1.691820   -0.065008
H      1.970664   -0.524314   -1.493981
H      2.930447   -0.130474    1.394778
H      0.441733   -0.065356    1.111538
