38

C      6.368569    1.184023    0.556902
C     -0.341108    1.655598   -1.162845
C      4.904238    0.896474    0.403168
C      4.485324   -0.344799    0.331267
C      2.773476   -2.077435    0.117952
C     -3.369775    0.882883    0.172735
C     -3.771832   -1.338363   -0.489714
C     -4.710705    1.037341    0.520758
C     -5.111554   -1.194190   -0.145435
C      1.473480   -2.508372   -0.022716
C      2.041808    0.160609    0.098453
C     -0.554423    0.557764   -0.152860
C      3.090955   -0.721250    0.182406
C     -2.885752   -0.300426   -0.334184
C     -5.598511   -0.006500    0.363616
C      0.721340   -0.232648   -0.043373
C      0.435590   -1.575047   -0.104288
C     -1.479561   -0.489659   -0.708343
O     -6.948690    0.121108    0.704615
O     -0.947209   -1.715793   -0.246182
H      6.949479    0.745898   -0.284101
H      6.686737    0.833858    1.543225
H      6.516099    2.282169    0.522142
H     -0.836300    1.375619   -2.107839
H     -0.778281    2.613524   -0.808300
H      0.746183    1.869162   -1.317871
H      4.182964    1.716758    0.350624
H      5.273257   -1.111406    0.391779
H      3.595116   -2.795056    0.183028
H     -2.699359    1.699199    0.300944
H     -3.408241   -2.279648   -0.888216
H     -5.077847    1.976138    0.919217
H     -5.819124   -2.001167   -0.262251
H      1.245785   -3.572536   -0.071130
H      2.247938    1.231162    0.144862
H     -0.806038    0.905517    0.847621
H     -1.338133   -0.492010   -1.825986
H     -7.255896    1.011499    1.073487
