37

C     -2.258707    1.708218    0.154858
C     -3.925479    0.071461    0.856048
C     -1.649180   -0.105378    1.700648
C      2.533130    3.290936    2.039452
C      1.297674   -4.086260   -1.905456
C      2.410433    0.081979    0.036908
C      1.383240   -0.389045   -0.967261
C      2.006361    1.413500    0.547637
C      1.781209   -1.719110   -1.481583
C     -0.942209   -0.613492   -1.211183
C     -2.450812    0.246142    0.469591
N      0.049286   -0.391821   -0.417999
O      0.976833    2.011640    0.180224
O      2.916319   -1.882425   -1.992721
O     -0.772189   -0.847949   -2.565891
O      2.833217    2.026816    1.495819
O      0.927200   -2.809427   -1.416454
O     -2.209976   -0.601436   -0.608529
H     -3.245903    2.220656   -0.031400
H     -1.664809    2.237188    0.909744
H     -1.712339    1.765635   -0.813642
H     -4.362340    1.048287    1.165946
H     -4.519647   -0.285888   -0.016708
H     -4.032047   -0.662570    1.683950
H     -2.233275    0.310625    2.573189
H     -0.682082    0.446666    1.719946
H     -1.535325   -1.182751    1.836843
H      2.277703    3.195754    3.117266
H      1.684349    3.750999    1.524851
H      3.414597    3.953741    1.971985
H      1.739615   -4.672681   -1.068625
H      2.059690   -4.018188   -2.708643
H      0.447133   -4.651810   -2.325078
H      3.378621    0.176816   -0.478705
H      2.535662   -0.651767    0.857076
H      1.416090    0.329912   -1.823133
H      0.127957   -0.714972   -3.008968
