40

C     -2.147750   -2.518195    0.821139
C     -1.111859    3.779508   -0.808559
C      3.941290   -0.697966    0.141412
C     -2.758203   -0.247931   -0.048054
C     -2.252434    1.189991    0.123115
C      0.519980   -2.105801   -0.116458
C      1.854781   -1.777682   -0.722765
C     -1.675594   -1.115727    0.549892
C     -0.452156    2.730725   -0.348698
C     -0.498640   -1.054066   -0.375065
C     -0.972781    1.362650   -0.637798
C      0.760934    2.947946    0.424804
C      0.800176    0.604584    0.964064
C      2.463193   -0.563220   -0.031088
C      0.070708    0.347229   -0.324298
O      1.185387    4.089455    0.688397
O      1.459625    1.850324    0.878406
O      1.769704   -0.365782    1.146172
O      2.241681    0.548893   -0.875684
O      1.037172    0.412130   -1.353096
H     -1.248056   -3.131142    1.038763
H     -2.756202   -2.523420    1.749956
H     -2.707038   -2.949131   -0.038184
H     -0.769303    4.773206   -0.621479
H     -2.015435    3.654750   -1.385946
H      4.516779    0.027139   -0.491272
H      4.227450   -0.519411    1.195234
H      4.311356   -1.710705   -0.151198
H     -2.857919   -0.424819   -1.140877
H     -3.731592   -0.372895    0.442732
H     -2.977493    1.921715   -0.232836
H     -2.032606    1.290257    1.210784
H      0.171813   -3.075924   -0.504359
H      0.670310   -2.197593    0.982750
H      1.768357   -1.631958   -1.817760
H      2.511495   -2.659693   -0.563982
H     -1.388444   -0.663412    1.518896
H     -0.882560   -1.195974   -1.411949
H     -1.192608    1.330645   -1.721775
H      0.146484    0.641300    1.846665
