42

C      2.098921    3.342242    0.034125
C      1.776061   -2.916492   -0.986550
C     -2.557194   -0.361360   -1.536528
C     -3.918066   -0.214999    0.538804
C      3.147584   -0.565970    0.017438
C      2.891185    0.907811   -0.037097
C      2.330124   -1.466067    0.833249
C      0.582138    1.708401    0.769582
C     -0.163100   -1.821057    0.256286
C     -0.391225    1.012380   -0.111763
C     -1.136373   -1.067510    1.144320
C      2.017966    1.813386    0.230167
C      1.095440   -2.019413    0.102324
C     -1.461006    0.296684    0.631753
C     -2.730063    0.307653   -0.209824
O     -2.987744    1.673867   -0.474447
H      2.982042    3.889638    0.082761
H      1.499720    3.634365   -0.871794
H      1.472642    3.829301    0.876920
H      2.886093   -3.001393   -0.671796
H      1.516752   -3.947524   -1.010627
H      1.889920   -2.361822   -1.933148
H     -2.984447   -1.378254   -1.477084
H     -3.150681    0.159074   -2.338361
H     -1.502420   -0.399954   -1.871135
H     -3.730162   -0.426359    1.600668
H     -4.788173    0.501424    0.522331
H     -4.262517   -1.155931    0.039700
H      3.098967   -1.005926   -1.033453
H      4.261255   -0.744715    0.253049
H      3.929486    1.183357   -0.572490
H      3.008410   -2.344452    1.076907
H      2.216028   -1.048274    1.823054
H      0.530514    1.211079    1.757504
H      0.188167    2.744477    1.034204
H     -1.006771   -2.268460   -0.451787
H     -0.868312    1.787685   -0.772072
H      0.187325    0.368558   -0.805126
H     -0.900147   -1.000318    2.209495
H     -2.134277   -1.640418    1.220653
H     -1.722332    0.951810    1.517216
H     -3.211729    1.833479   -1.407427
