42

C      1.837488    2.488996    1.577829
C      2.819285   -1.499678    0.981303
C     -3.144670   -0.319236    1.239314
C     -3.518661   -0.881583   -1.169790
C      2.598330    0.265688   -1.460088
C      2.727501    1.035282   -0.212328
C      1.832209   -1.017043   -1.315935
C      0.412842    1.674279   -0.386713
C      0.398622   -1.663150    0.577395
C     -0.529690    0.808357    0.437083
C     -0.806166   -1.578266   -0.268159
C      1.710643    1.706422    0.311315
C      1.614865   -1.408346    0.110800
C     -1.290950   -0.151753   -0.449082
C     -2.776790   -0.016648   -0.183758
O     -3.114101    1.307498   -0.460927
H      2.891376    2.788990    1.712595
H      1.532565    1.903983    2.457586
H      1.235935    3.408075    1.450433
H      2.797690   -2.450541    1.584510
H      3.744317   -1.571906    0.373795
H      2.863409   -0.687789    1.737556
H     -3.551321   -1.369333    1.326664
H     -2.324139   -0.156432    1.951312
H     -4.002421    0.336928    1.508955
H     -3.392955   -1.941388   -0.941922
H     -3.101347   -0.656248   -2.173838
H     -4.579286   -0.543993   -1.191308
H      2.202705    0.869330   -2.316145
H      3.654246    0.026925   -1.791084
H      3.674623    1.095610    0.353611
H      0.887589   -1.038926   -1.901098
H      2.442110   -1.863218   -1.752918
H      0.435001    1.259258   -1.395210
H     -0.023096    2.707492   -0.492276
H      0.329580   -1.939793    1.620623
H     -1.210493    1.490885    0.985238
H      0.026402    0.244893    1.218629
H     -0.709654   -2.117108   -1.237349
H     -1.652245   -2.109816    0.260910
H     -1.145901    0.172300   -1.511059
H     -3.795445    1.391004   -1.166466
