32

C     -4.145870    0.185779    1.222141
C     -3.122637    0.586859    0.156850
C     -2.537747   -0.667960   -0.480387
C     -1.531312   -0.352367   -1.533811
C     -0.357589    0.428484   -1.039403
C      2.675507   -1.779154    0.377996
C      2.482644   -0.558557    1.229804
C      0.361539   -0.339458    0.031186
C      1.541875    0.383310    0.567365
C      3.678332    1.058289    0.233743
N      3.731808    0.177645    1.173463
N      2.399409    0.990871   -0.416338
O      4.709426    1.947744   -0.104854
S      1.148328   -1.846987   -0.640061
H     -3.931121   -0.806848    1.631934
H     -5.180943    0.214571    0.792905
H     -4.115435    0.971958    1.995466
H     -2.306188    1.174718    0.651353
H     -3.648092    1.219771   -0.568408
H     -2.143216   -1.296919    0.339161
H     -3.386978   -1.245361   -0.915008
H     -2.051767    0.264547   -2.311875
H     -1.178592   -1.316653   -1.957432
H     -0.707907    1.376809   -0.583586
H      0.313845    0.733975   -1.867474
H      3.574832   -1.729032   -0.265067
H      2.683023   -2.675289    1.011375
H      2.209322   -0.803608    2.276915
H     -0.290892   -0.624092    0.850827
H      1.281696    1.159250    1.323073
H      2.195905    1.314307   -1.362986
H      5.648795    1.853398    0.295150
