31

C      3.751718    1.228399    0.446549
C     -3.519878    1.024897    0.882914
C      3.494430    0.357082   -0.774193
C      2.000448    0.023969   -0.887979
C      1.618418   -0.702198    0.350005
C     -3.090976   -0.005410   -0.114560
C      0.209170   -1.122957    0.453218
C     -2.066965   -0.893764    0.487214
C     -0.799782   -0.023706    0.408377
C     -2.315580    0.692494   -1.177506
C     -1.635124   -1.990503   -0.415496
O     -2.857153    1.291162   -2.131538
O     -2.428452   -2.800274   -0.946620
O     -0.253999   -1.971837   -0.569169
O     -0.968280    0.530665   -0.877605
H      4.585861    1.923131    0.304310
H      2.797197    1.759848    0.650495
H      4.005016    0.534293    1.297095
H     -2.684653    1.403977    1.507079
H     -4.372098    0.705511    1.512290
H     -3.887485    1.915755    0.301900
H      4.047955   -0.603029   -0.709026
H      3.805271    0.854065   -1.702461
H      1.937824   -0.698916   -1.748019
H      1.429282    0.926652   -1.100103
H      2.266431   -1.592341    0.448491
H      1.851086   -0.053295    1.219480
H     -3.980304   -0.521080   -0.510768
H      0.071512   -1.669005    1.410182
H     -2.261992   -1.225105    1.510791
H     -0.748899    0.701517    1.207666
