21

C      2.368228    0.496040   -0.039905
C      1.559036   -0.247097    0.998118
C      0.489346   -1.078106    0.318859
C     -1.135117    0.826676    0.426130
C     -1.657279   -0.963869   -0.956743
C     -0.439437   -0.200414   -0.478661
C     -2.288174    1.181157   -0.426388
O     -2.911387    2.255947   -0.405530
O     -2.558447    0.110322   -1.255488
H      2.872146   -0.186869   -0.743105
H      1.735373    1.259007   -0.544083
H      3.155111    1.063880    0.500412
H      2.245611   -0.903771    1.560870
H      1.081893    0.520695    1.655376
H      1.018527   -1.725918   -0.412745
H     -0.070209   -1.696695    1.027443
H     -1.519502    0.345608    1.333052
H     -0.473417    1.684499    0.638436
H     -1.464647   -1.590786   -1.831765
H     -2.068790   -1.499908   -0.090098
H      0.061133    0.349602   -1.274185
