48

C     -7.703731   -0.026522    0.779966
C      7.842656   -0.037236    1.103965
C     -6.679192   -0.430754    1.639328
C     -7.408189    0.179373   -0.544866
C      7.170425   -0.103186   -0.088862
C      7.190343    0.233755    2.293763
C     -5.397379   -0.612252    1.133282
C     -6.154471    0.005707   -1.058616
C      5.824972    0.104862   -0.093552
C      5.847597    0.441513    2.289990
C      1.316602    1.893672   -1.002206
C      0.201945    1.933972   -1.693210
C     -1.470419   -1.182479   -0.233526
C     -5.144834   -0.391237   -0.218616
C      5.146072    0.379767    1.094771
C      1.624914    0.762950   -0.047854
C     -0.896489    0.888551   -1.633440
C      0.853814   -0.416697   -0.600407
C     -3.789214   -0.581260   -0.763201
C      3.719242    0.605285    1.123999
C     -0.643165    0.010721   -0.485476
O     -0.757710    0.190700   -2.843806
O      1.053755   -1.569226    0.128823
O     -3.609243   -0.372547   -1.976525
O      3.146251    0.847817    2.200599
O     -0.705048    0.819277    0.682908
O     -2.780070   -0.970842    0.041634
O      3.009667    0.547189   -0.054443
H     -8.712607    0.123455    1.143510
H      8.919099   -0.194067    1.175101
H     -6.856203   -0.603390    2.673298
H     -8.194657    0.494420   -1.227678
H      7.722805   -0.319505   -1.004200
H      7.724830    0.285274    3.235782
H     -4.585316   -0.925529    1.779703
H     -5.947401    0.174580   -2.106854
H      5.236628    0.067265   -0.996499
H      5.340798    0.653500    3.224517
H      2.029025    2.702857   -1.129742
H     -0.030297    2.753671   -2.391194
H     -1.299815   -1.982845   -1.022529
H     -1.017488   -1.676366    0.698304
H      1.210442    0.971123    0.960347
H     -1.872111    1.437549   -1.589433
H      1.097249   -0.519920   -1.678710
H     -1.378014    0.536220   -3.532625
H      1.412122   -2.287700   -0.451535
H     -1.608186    0.800785    1.066015
