49

C     -3.475127    2.103501   -0.772964
C      0.098431    2.536249   -0.713516
C     -2.693682    0.821187   -0.828982
C      4.349641   -0.028409    1.014456
C      3.574452    1.240135    0.716779
C      3.588270   -1.235074    0.582895
C      3.063993    1.069557   -0.696406
C      1.835372   -2.453584   -0.590317
C      0.357199   -2.237565   -0.716733
C     -2.468713   -1.826841    0.077978
C     -3.588850   -1.324743    0.974470
C     -1.120761    1.443848    1.024660
C      0.002571    1.459170   -0.015472
C      2.557010   -1.240472   -0.192198
C      2.000602    0.057421   -0.745275
C     -0.190667   -0.903966   -0.548747
C     -1.369180   -0.879610    0.381576
C     -3.186397    0.066312    1.406027
C      0.746972    0.201282   -0.027273
C     -2.080822    0.433101    0.479888
O     -3.709295    0.649363    2.306501
H     -4.563901    1.957342   -0.934570
H     -3.371816    2.639298    0.184991
H     -3.155793    2.836915   -1.563927
H      0.826675    2.705866   -1.480750
H     -0.602408    3.374797   -0.542319
H     -3.413466    0.029182   -1.123758
H     -1.974125    0.911575   -1.661606
H      4.537294   -0.045213    2.105629
H      5.325873   -0.010640    0.492937
H      4.311873    2.069281    0.698306
H      2.800090    1.462314    1.447323
H      3.993760   -2.179523    0.998387
H      3.954246    0.584757   -1.238089
H      2.933414    1.993515   -1.232980
H      2.268408   -2.761696   -1.585440
H      2.029870   -3.322539    0.072427
H     -0.162681   -2.931218    0.014440
H      0.042947   -2.688785   -1.708489
H     -2.764417   -1.887552   -0.988143
H     -2.197045   -2.887245    0.348921
H     -3.586107   -1.976255    1.876417
H     -4.567501   -1.327512    0.472077
H     -0.669079    1.035651    1.943252
H     -1.512200    2.426018    1.221282
H      1.841224   -0.184088   -1.845683
H     -0.517271   -0.511686   -1.557252
H     -0.967870   -1.161834    1.397373
H      0.868987   -0.101587    1.071896
