49

C     -3.920769   -1.510565   -0.067799
C     -0.247882   -2.491734    0.519150
C     -2.879807   -0.656103   -0.761903
C      4.708194   -0.277768    0.806634
C      3.691753   -0.966590    1.688481
C      4.023444    0.505140   -0.259104
C      2.579508   -1.588389    0.931334
C      2.223440    1.161499   -1.761713
C      0.910250    1.706649   -1.223227
C     -2.082262    2.045311   -1.136719
C     -3.359268    2.222584   -0.302661
C     -1.614967   -0.627402    1.349991
C     -0.404484   -1.209737    0.705936
C      2.793740    0.281953   -0.664662
C      1.920685   -0.772794   -0.135215
C     -0.025242    0.579083   -0.864460
C     -1.255312    1.189069   -0.257673
C     -3.289483    1.160550    0.770727
C      0.609627   -0.220160    0.264446
C     -2.257178    0.223500    0.285194
O     -3.960638    1.147398    1.775912
H     -3.553547   -2.543019    0.132545
H     -4.872255   -1.546394   -0.635510
H     -4.186376   -1.090788    0.933945
H      0.593391   -2.990754    0.062109
H     -1.039144   -3.198206    0.848416
H     -2.129963   -1.282203   -1.302958
H     -3.409012   -0.055785   -1.517512
H      5.404568   -0.995339    0.326488
H      5.316448    0.388373    1.446048
H      4.234480   -1.775713    2.219588
H      3.317393   -0.268999    2.464738
H      4.582625    1.315684   -0.731148
H      2.937730   -2.535846    0.484302
H      1.821004   -1.894750    1.698449
H      2.104224    0.565190   -2.670828
H      2.886425    2.027117   -1.910951
H      0.481572    2.420713   -1.926267
H      1.166046    2.219420   -0.257383
H     -1.586155    3.023255   -1.295705
H     -2.314176    1.624237   -2.126197
H     -3.388075    3.236533    0.140881
H     -4.262132    2.037307   -0.922918
H     -1.266485    0.038482    2.159436
H     -2.298197   -1.397663    1.733901
H      1.739431   -1.476434   -1.001316
H     -0.251439   -0.077326   -1.729383
H     -0.908159    1.813489    0.602292
H      0.716427    0.517925    1.112270
