28

C      2.087948    0.092706    1.083965
C      3.443412    0.346049    1.080304
C     -0.670808   -0.882417    1.151645
C     -2.510431    1.851722   -0.297904
C      1.488952   -0.390644   -0.024917
C     -2.003647   -0.194987    0.955796
C      0.020255   -0.621736   -0.132795
C     -1.906345    0.434102   -0.410990
C      4.205138    0.116253   -0.045269
C      2.298355   -0.611403   -1.136486
O     -3.854551    1.683867   -0.001423
O     -3.017988   -1.157614    0.986293
O      5.443831    0.369317    0.004645
O      1.685060   -1.113592   -2.280138
O     -0.572758    0.509374   -0.724033
O      3.602951   -0.350443   -1.104488
H      1.545796    0.303072    1.968069
H      3.929471    0.719638    1.964597
H     -0.817160   -1.991525    1.290256
H     -0.235487   -0.493638    2.064921
H     -2.306586    2.418406   -1.203405
H     -2.013080    2.349447    0.583583
H     -2.155595    0.613598    1.717820
H     -0.134154   -1.465262   -0.819248
H     -2.507065   -0.092922   -1.178994
H     -3.972027    1.759887    1.000496
H     -2.664301   -2.065201    0.951093
H      1.590814   -2.136053   -2.398435
