41

C      2.879724    0.252559    2.982433
C     -2.824394    1.347763   -0.245464
C     -2.445560   -1.338661    0.015107
C      1.587512   -1.536927    0.403941
C      2.658459    0.493203   -1.155962
C     -0.753661    1.638927   -1.587287
C     -0.034801   -0.385220   -2.550055
C     -5.493291   -0.264810    1.619552
C     -1.714721    0.784671   -0.831691
C     -1.542575   -0.572457   -0.688094
C      0.816203   -0.936364   -0.480077
C     -0.372899   -1.209586   -1.297948
C      1.200887    0.476899   -0.814447
C      3.535265   -0.310732   -0.246293
C      2.738624   -0.774141    0.968689
C     -3.721087    0.584576    0.453267
C     -3.558775   -0.776327    0.603680
N      0.409406    0.857974   -1.954057
O      4.576704    0.459875    0.223339
O      2.357622    0.334758    1.688397
O     -4.907440    0.916593    1.129872
O     -4.586838   -1.305172    1.340839
H      3.977711    0.206510    2.948799
H      2.434097   -0.648638    3.443104
H      2.551614    1.113130    3.603899
H     -3.000095    2.410282   -0.332439
H     -2.301400   -2.415281    0.124299
H      1.354995   -2.553213    0.682010
H      2.836731    0.153696   -2.203728
H      2.985451    1.560900   -1.088497
H     -1.253244    1.961641   -2.512398
H     -0.427873    2.512995   -0.993259
H      0.832607   -0.846055   -3.059121
H     -0.911515   -0.238077   -3.191069
H     -5.633828   -0.171071    2.717183
H     -6.465648   -0.453123    1.118889
H     -0.533498   -2.258013   -1.552500
H      0.960019    1.175009    0.018003
H      3.939717   -1.228725   -0.761770
H      3.365354   -1.478030    1.561838
H      4.484438    1.383980   -0.100984
