28

C      2.121109    1.270470    0.035465
C      3.393861    1.364545    0.587087
C     -0.449470    1.236541   -0.677315
C     -3.071789   -1.127177    0.185225
C      1.541858    0.013705   -0.086710
C     -1.912259    0.921096   -0.665176
C      0.206476   -0.131035   -0.685812
C     -1.902371   -0.587318   -0.596164
C      4.090379    0.252957    1.012887
C      2.298391   -1.055049    0.362193
O     -3.017650   -2.502927    0.233554
O     -2.558923    1.347993   -1.810824
O      5.240110    0.388976    1.506581
O      1.764696   -2.312238    0.261501
O     -0.682508   -0.914524   -0.007909
O      3.483445   -0.894663    0.868406
H      1.631047    2.187588   -0.289503
H      3.839296    2.367591    0.673080
H     -0.201061    1.689915    0.307916
H     -0.115103    1.895944   -1.470019
H     -3.997156   -0.791229   -0.299244
H     -3.041446   -0.663869    1.193878
H     -2.411575    1.344720    0.246441
H      0.343873   -0.496824   -1.730284
H     -1.933301   -0.996630   -1.630564
H     -2.162778   -2.810772   -0.150635
H     -3.499199    1.582685   -1.545000
H      1.002048   -2.580472   -0.339441
