39

C      3.874940   -0.331556    0.258841
C     -0.918457   -2.609696   -0.919796
C     -1.022310    2.521706   -1.088007
C      0.530849    2.331926    0.829892
C     -2.579495   -0.808755   -0.769488
C     -2.644159    0.506159   -0.070261
C      1.687363   -1.521575    0.870206
C      0.445516   -0.904943    1.473985
C      1.661295    0.396247   -0.566827
C      2.400474   -0.432034    0.146479
C     -1.453477   -1.520212   -0.058657
C     -1.360432    0.706940    0.671828
C      0.189379    0.320894   -0.697646
C     -0.422437    1.588486   -0.085224
C     -0.473537   -0.490347    0.356433
H      4.297705   -1.306120    0.584310
H      4.356507   -0.053831   -0.699720
H      4.169878    0.410843    1.048199
H     -0.172724   -2.312506   -1.656004
H     -1.790083   -3.020828   -1.510263
H     -0.598139   -3.480213   -0.282679
H     -1.876079    3.104321   -0.690190
H     -0.231756    3.292706   -1.323066
H     -1.255077    2.037176   -2.056861
H      1.570595    1.979873    0.728167
H      0.160464    2.238482    1.891395
H      0.543306    3.426232    0.627545
H     -2.393312   -0.740260   -1.849134
H     -3.495293   -1.434668   -0.630744
H     -3.522544    0.573541    0.621681
H     -2.798824    1.292738   -0.864622
H      2.329331   -2.001345    1.635654
H      1.453177   -2.297995    0.108947
H     -0.069141   -1.674899    2.080639
H      0.752033   -0.085348    2.125035
H      2.160791    1.207151   -1.109645
H     -1.885075   -1.983147    0.853917
H     -1.454514    0.884475    1.754972
H     -0.166737    0.190382   -1.739290
