22

C      0.569672    1.177028    0.275577
C      0.461128   -0.863220   -0.981717
C      1.243028    0.175272   -0.269630
C     -0.896115    1.319230    0.216978
C     -0.746376   -1.171090   -0.089775
C     -1.619630    0.058622   -0.124320
C      2.688546    0.107077   -0.167776
O     -1.304921    1.798004    1.481375
O     -1.441469   -2.212287   -0.730248
O     -2.755688   -0.141557    0.661075
O      3.290267   -0.871295   -0.705840
O      3.373795    1.104863    0.509933
H      1.141315    1.927986    0.791129
H      1.022829   -1.789548   -1.159192
H      0.037752   -0.445038   -1.927891
H     -1.173369    2.124946   -0.517704
H     -0.438662   -1.468809    0.914036
H     -1.997127    0.130537   -1.185036
H     -0.720357    1.420961    2.188185
H     -1.486405   -3.012304   -0.120809
H     -3.574698   -0.269729    0.140287
H      4.326485    0.900350    0.801363
