31

C     -5.369002   -0.484347    1.006250
C     -4.166309   -0.473700    0.115835
C     -2.963594   -0.442050    0.694597
C     -1.708223   -0.430339   -0.143685
C     -0.999307    0.853397    0.224003
C      3.147532    0.302347   -0.426060
C      4.301415   -0.528001    0.140211
C      0.879371    0.135456   -1.465349
C      0.263739    1.057813   -0.489065
C      2.043005   -0.612177   -0.896457
O      5.323015    0.308016    0.576602
O      0.870009    2.098668   -0.251981
O      1.624242   -1.363864    0.203900
H     -5.079461   -0.849677    2.022783
H     -6.181438   -1.114308    0.629846
H     -5.677278    0.590073    1.159093
H     -4.209455   -0.489129   -0.955249
H     -2.911494   -0.425490    1.775714
H     -1.140148   -1.340323    0.147246
H     -1.940598   -0.513797   -1.212180
H     -1.686689    1.684869   -0.028103
H     -0.892589    0.842976    1.330847
H      3.584586    0.894298   -1.264996
H      2.844979    1.013864    0.349651
H      4.741899   -1.166224   -0.674332
H      3.976636   -1.168818    0.976447
H      0.163877   -0.570369   -1.923790
H      1.270615    0.768003   -2.299591
H      2.460081   -1.274857   -1.676214
H      5.740458   -0.111599    1.368802
H      1.690124   -0.735406    0.985225
