39

C      2.816385    0.726442   -0.583705
C      3.080242   -0.938309    1.312969
C     -0.188608    3.882019   -0.204942
C     -2.286144   -2.127192    1.353199
C     -1.853870    2.056522   -0.930720
C     -0.825578   -2.462256   -0.563798
C     -2.006695    0.583593   -1.123646
C      0.484104   -2.225050    0.101780
C      0.274184    1.582853    0.241060
C      2.311989   -0.483061    0.082773
C     -0.571185    2.434389   -0.288736
C     -1.914700   -1.569107   -0.004909
C      0.870380   -0.762356    0.150549
C     -1.495712   -0.155951    0.128306
C     -0.061276    0.125683    0.181122
H      2.147613    1.253563   -1.268292
H      3.712114    0.487343   -1.279743
H      3.348515    1.395941    0.158440
H      2.719225   -0.415946    2.234749
H      4.171390   -0.813839    1.162539
H      2.925631   -2.020615    1.506939
H      0.477653    4.092543   -1.056105
H      0.336271    4.075192    0.737298
H     -1.094122    4.518657   -0.216774
H     -1.620107   -1.684464    2.122917
H     -3.331623   -1.859770    1.622999
H     -2.133991   -3.235812    1.401438
H     -2.704731    2.479411   -0.351914
H     -1.933527    2.550283   -1.945191
H     -0.736226   -2.287453   -1.656484
H     -1.068636   -3.536107   -0.432384
H     -1.434470    0.252727   -2.008423
H     -3.088867    0.372533   -1.270001
H      0.420451   -2.613801    1.154524
H      1.275172   -2.796504   -0.409929
H      1.194432    1.824308    0.744464
H      2.657607   -1.324611   -0.679277
H     -2.825864   -1.703147   -0.650352
H     -2.047426    0.321352    0.972983
