23

C      0.956104   -0.026256    0.710329
C      2.291267    0.351410    0.663246
C     -1.064300   -0.885021   -0.495318
C      2.349310   -0.227537   -1.626733
C      0.335032   -0.499053   -0.415260
C      2.983367    0.246279   -0.517479
C     -1.982034   -0.426687    0.567785
C     -2.112172    1.049985    0.620813
N     -3.314272   -0.987172    0.446535
N      1.064700   -0.587806   -1.572311
O      4.309932    0.614043   -0.592950
O     -3.281139    1.569228    0.746206
O     -1.027750    1.899619    0.538292
H      0.384718    0.012891    1.621684
H      2.732154    0.718666    1.579797
H     -1.173932   -2.006182   -0.589179
H     -1.453324   -0.522449   -1.494412
H      2.871750   -0.324819   -2.584649
H     -1.640641   -0.730294    1.596928
H     -3.499963   -1.220746   -0.560734
H     -3.465368   -1.815451    1.054588
H      4.843023    0.972087    0.184693
H     -1.106463    2.825264    0.118129
