39

C      3.236015    0.613399   -1.442790
C      3.022347    0.883943    0.945100
C     -2.142450    3.455674   -0.149025
C     -1.403470   -3.219375   -0.031446
C     -2.493272    1.060716    0.722579
C      0.565514   -2.072288    0.954194
C     -2.527506   -0.272000    0.027180
C      1.454427   -1.563248   -0.156192
C     -0.542320    1.593855   -0.530998
C      2.204311    0.920016   -0.339964
C     -1.671395    2.053569   -0.020691
C     -0.870412   -1.945932    0.590887
C      1.164159   -0.107423   -0.300115
C     -1.191118   -0.805975   -0.342729
C     -0.108399    0.208677   -0.386154
H      3.785096   -0.317395   -1.221824
H      3.978145    1.437184   -1.379897
H      2.786358    0.649469   -2.438004
H      3.140216   -0.162385    1.237621
H      2.550036    1.465902    1.755043
H      3.997886    1.356568    0.733186
H     -2.970191    3.427740   -0.917811
H     -1.376408    4.141200   -0.504415
H     -2.557845    3.815366    0.816972
H     -1.013615   -4.119802    0.473511
H     -2.522111   -3.210049    0.023750
H     -1.143606   -3.195521   -1.116732
H     -3.542023    1.409884    0.822724
H     -2.098243    0.959959    1.754723
H      0.760540   -1.439338    1.851797
H      0.788003   -3.155803    1.181968
H     -3.161209   -0.210229   -0.880904
H     -3.077675   -0.976660    0.709170
H      1.258154   -2.127252   -1.083446
H      2.494074   -1.758651    0.144540
H      0.071039    2.318530   -1.082647
H      1.869237    1.935164   -0.578002
H     -1.458057   -1.817694    1.547615
H     -1.254231   -1.229796   -1.388771
