26

C      1.509549   -1.163843   -0.300277
C     -2.131600   -0.060877    0.756974
C      0.141035   -1.833851   -0.437416
C     -2.037922   -0.826550   -0.556332
C      2.122929    1.091501    0.605922
C      1.046295    0.055763    0.496546
C     -1.221922    1.131850    0.444670
C     -0.123144    0.476577   -0.329407
N     -0.647980   -0.724838   -0.924826
O      2.559799    1.580182   -0.601823
O     -1.962604    2.029320   -0.321952
H      2.225257   -1.775273    0.237006
H      1.831168   -0.834080   -1.302252
H     -3.149042    0.290118    0.938920
H     -1.689402   -0.641284    1.588701
H      0.173362   -2.681849   -1.118912
H     -0.153424   -2.113440    0.612391
H     -2.391553   -1.860227   -0.444569
H     -2.636184   -0.244950   -1.303135
H      2.990779    0.599269    1.123931
H      1.767496    1.874581    1.290893
H      0.737640   -0.264259    1.487290
H     -0.873499    1.614597    1.361320
H      0.230312    1.124179   -1.176873
H      3.424637    1.132443   -0.857812
H     -1.741981    2.024941   -1.268979
