50

C      4.321802   -3.052933    0.070498
C      3.888303    0.923886    2.530777
C      0.613808    2.487095    1.898506
C     -0.221685   -2.350815   -1.243747
C      1.844492   -1.876862   -0.414127
C     -0.102037    2.098626   -0.830658
C     -2.871633    1.761935   -0.430220
C     -3.699929   -2.711764   -0.007426
C     -1.910250    5.221661   -1.137052
C      0.612938   -1.325857   -0.668553
C     -0.666722    0.910261   -0.454225
C     -2.039374    0.712115   -0.251308
C     -1.682571   -2.274468   -1.193405
C     -2.429209   -1.914281    0.013483
C     -0.959179    3.152574   -1.006732
C     -2.344376    2.984347   -0.806029
C      2.876455   -1.140985    0.184678
C      0.465672    0.011321   -0.290961
C     -2.821220   -0.469720    0.082422
C      2.645640    0.191243    0.535446
C      1.421393    0.787987    0.300382
C     -2.244508   -3.626370   -1.530229
O     -3.972068   -0.193202    0.474685
O     -1.709303   -4.515503   -2.240825
O      4.122072   -1.700654    0.438601
O      3.693729    0.891217    1.128911
O      1.133312    2.090293    0.642649
O     -3.475311   -3.760838   -0.928652
O     -0.724753    4.458619   -1.371957
O     -2.909564    4.217620   -1.060640
H      3.673875   -3.732623    0.693344
H      4.131044   -3.196615   -1.009114
H      5.382274   -3.345092    0.300848
H      4.790263    0.362417    2.800489
H      3.042116    0.515797    3.099727
H      3.971994    1.999899    2.814136
H     -0.174202    1.752930    2.166449
H      0.061508    3.455732    1.712038
H      1.383267    2.613871    2.654667
H      0.073548   -2.453537   -2.331917
H      0.096115   -3.343419   -0.803088
H      2.080349   -2.918126   -0.666608
H      0.920189    2.099587   -1.034451
H     -3.928569    1.586248   -0.264944
H     -4.540453   -2.085605   -0.380263
H     -3.937799   -3.116567    1.019720
H     -1.874245    5.704846   -0.134433
H     -2.101509    5.941013   -1.951393
H     -2.051127   -1.613843   -2.036680
H     -1.854564   -2.213460    0.917181
