24

C      1.970011   -0.605434    0.549650
C      2.022600    0.879785    0.473710
C     -2.437212   -0.130669    0.247270
C      1.008206   -1.267629   -0.359746
C     -1.493257   -1.282363   -0.123389
C      0.778922    1.461332   -0.217785
C     -1.598399    1.136656    0.035361
C     -0.273584   -0.569100   -0.582896
N     -0.288554    0.635902    0.253238
H      1.795472   -0.995764    1.590801
H      3.001365   -0.987651    0.291385
H      1.946030    1.267112    1.533039
H      2.947271    1.300913    0.071459
H     -3.319839   -0.101275   -0.390117
H     -2.661160   -0.180975    1.336294
H      1.514376   -1.389616   -1.361107
H      0.828898   -2.311243    0.015748
H     -1.337063   -1.962518    0.731849
H     -1.992898   -1.851602   -0.928514
H      0.946524    1.296129   -1.321060
H      0.640003    2.515747    0.014146
H     -1.712587    1.523272   -0.989618
H     -1.849184    1.909522    0.793588
H     -0.435941   -0.290530   -1.663306
