23

C     -3.155969    0.402973    0.310358
C      3.736753    0.293427    0.073074
C      3.075717   -0.734976   -0.557357
C      2.979482    1.308164    0.613486
C      1.679752   -0.728374   -0.634409
C      1.622747    1.323237    0.543589
C     -1.196792   -0.648043   -0.754738
C     -0.507737    0.286742   -0.176592
C     -2.681904   -0.517630   -0.765636
C      0.947387    0.278097   -0.097310
O     -3.283475   -1.782861   -0.643019
H     -3.038982    1.447934   -0.031794
H     -4.250079    0.253571    0.465727
H     -2.613453    0.279097    1.267596
H      4.805265    0.281663    0.128183
H      3.602839   -1.546821   -0.994257
H      3.476105    2.121734    1.110688
H      1.213453   -1.565037   -1.143158
H      1.035962    2.121580    0.969265
H     -0.747632   -1.489421   -1.213199
H     -1.046541    1.136582    0.281533
H     -2.971755   -0.129216   -1.759437
H     -2.681142   -2.392421   -0.125392
