54

C      5.647800   -2.203399    1.592476
C      3.547244   -0.864658   -2.579252
C      0.158475    2.364869   -1.060455
C      4.651790   -1.445987    2.412993
C      3.884895   -0.427376    1.572161
C     -5.562974    1.534149   -1.237331
C     -4.934832    1.162799   -2.399043
C      3.168732   -1.202183    0.490238
C     -4.932338    1.377080   -0.003141
C     -3.670023    0.632488   -2.323206
C     -3.489170   -0.137009    2.370745
C     -3.562575   -1.545018    1.836318
C     -0.574163    0.005231   -1.502865
C      2.553378   -0.180890   -1.684439
C      2.381245   -0.310299   -0.399104
C     -3.667659    0.847455    0.084027
C     -3.040467    0.476337   -1.084631
C      1.587965    0.782534   -2.176130
C      1.305291    0.546546    0.068260
C     -1.935358   -0.546969    0.644323
C      0.517817    0.915667   -1.108417
C     -2.791306    0.574863    1.245473
N     -1.747403   -0.029863   -0.698432
O      1.570420    1.413937   -3.243798
O      1.092628    0.901470    1.243773
O     -2.040784    1.645553    1.653168
O     -2.859025   -1.592538    0.660627
H      5.279173   -3.162983    1.196583
H      6.530508   -2.433322    2.245833
H      6.043684   -1.602102    0.744503
H      4.370104   -0.142712   -2.850381
H      3.074513   -1.138499   -3.549139
H      3.931967   -1.798215   -2.146444
H      1.113596    2.944526   -1.231719
H     -0.473949    2.602415   -1.949091
H     -0.244347    2.726763   -0.117890
H      3.919721   -2.176023    2.826887
H      5.151338   -0.978053    3.276070
H      3.156118    0.058759    2.251428
H      4.550500    0.354718    1.190130
H     -6.568613    1.960626   -1.251721
H     -5.411544    1.278503   -3.366027
H      2.481557   -1.902299    1.005766
H      3.880924   -1.784637   -0.113089
H     -5.493829    1.694754    0.877435
H     -3.129406    0.324047   -3.212553
H     -4.458239    0.319467    2.575862
H     -2.813586   -0.074735    3.259834
H     -4.662767   -1.754750    1.682587
H     -3.218320   -2.310637    2.545865
H     -0.141871   -1.041976   -1.512745
H     -0.895084    0.158831   -2.573742
H     -1.032197   -0.758839    1.197409
H     -2.199553    1.775253    2.624011
