54

C     -2.346779    4.413819   -0.851020
C     -4.411100   -2.546470   -1.080541
C     -3.044929    3.779204    0.313183
C     -2.903918   -2.545034   -1.067383
C      5.134341    0.179077   -1.522193
C      4.531996    0.339957    0.735549
C      6.440117    0.469119   -1.191998
C      5.828350    0.631561    1.093194
C     -1.196265    1.191553   -0.651675
C     -1.555113   -2.700322    2.280195
C      4.135985    0.104284   -0.572452
C      6.809142    0.700093    0.120187
C     -0.481086    0.463884    0.457666
C     -2.604454    1.576094   -0.279215
C     -1.539282   -0.367573    1.181157
C      0.451779   -0.546391   -0.137089
C      0.206194   -1.832596    0.650870
C      2.761908   -0.201458   -0.924460
C     -2.700080   -0.677637    0.281361
C     -0.833920   -1.642633    1.508162
O     -0.902325   -3.919765    2.245420
O      8.130804    0.990020    0.425049
O      2.465011   -0.402151   -2.100310
O     -2.553697    2.555724    0.677616
O     -2.354246   -1.302787   -0.889535
O     -3.399260    0.497777    0.064369
O      1.810038   -0.265794    0.035395
O      0.507379   -1.461634    2.082895
H     -2.701642    5.468745   -0.955530
H     -1.244243    4.465963   -0.718885
H     -2.637129    3.911075   -1.795434
H     -4.743030   -3.490140   -1.562111
H     -4.855607   -1.717145   -1.635929
H     -4.801947   -2.610335   -0.024129
H     -4.131854    3.764906    0.079364
H     -2.932420    4.461371    1.180781
H     -2.557220   -3.318990   -0.369536
H     -2.586637   -2.896356   -2.089887
H      4.854916   -0.001969   -2.566808
H      3.756195    0.284098    1.491754
H      7.207856    0.520229   -1.974553
H      6.127132    0.812911    2.109204
H     -0.684612    2.144642   -0.930806
H     -1.163456    0.577913   -1.599450
H     -1.541795   -2.374506    3.361630
H     -2.598951   -2.834879    2.013832
H     -0.037964    1.115405    1.211504
H     -3.063765    2.004030   -1.218137
H     -1.895880    0.108597    2.090597
H      0.232545   -0.718116   -1.194834
H      0.775059   -2.714524    0.347798
H     -3.386392   -1.340908    0.870591
H     -0.574556   -4.127600    1.322564
H      8.798809    1.025664   -0.327988
