30

C     -1.755470   -0.960124    1.041812
C     -1.144899   -1.296693   -1.350956
C     -0.831222    1.626063    0.884468
C      0.235611    0.686208    1.453672
C     -0.267023    1.314071   -1.481228
C      1.363629   -1.308435    0.402992
C     -1.307127    1.018173   -0.396778
C     -0.959843   -0.462795   -0.147227
C      0.470485   -0.185610    0.221769
C      0.945582    0.733358   -0.851470
N      2.213787    0.724753   -1.117414
O      3.736402   -1.465189   -0.922014
O      3.586265    0.020653    1.073699
O      1.836006    1.786911   -0.383818
S      2.912816   -0.541274   -0.124549
H     -2.653068   -1.526516    0.736705
H     -1.136325   -1.615832    1.680210
H     -2.112367   -0.126227    1.679746
H     -0.244788   -1.566188   -1.901780
H     -1.927056   -0.810418   -2.003646
H     -1.619546   -2.269642   -1.028279
H     -1.612893    1.858426    1.607669
H     -0.305980    2.581814    0.638608
H     -0.157408    0.090661    2.284264
H      1.164847    1.216121    1.678579
H     -0.218204    2.370345   -1.732805
H     -0.524351    0.703791   -2.373262
H      1.464555   -1.679329    1.441383
H      1.162349   -2.103680   -0.327707
H     -2.314761    1.186604   -0.682645
