38

C      5.076763   -1.419004    0.926854
C     -2.380817   -1.236011    3.090583
C     -4.107841   -0.647148   -2.757867
C     -4.241961    0.458085   -1.957822
C     -2.945320   -1.390635   -2.660633
C     -3.221183    0.796019   -1.084012
C     -1.934122   -1.045642   -1.786882
C      3.543505    0.427485    1.439554
C      3.394668   -0.547968   -0.705405
C      2.513829    1.309678    1.103737
C      2.363777    0.338383   -1.035700
C      3.978584   -0.499808    0.527455
C     -2.062738    0.048122   -0.992702
C      1.914602    1.275194   -0.133060
C     -1.009183    0.492240   -0.014952
C     -1.574765    0.231813    1.336546
O     -1.837412    1.182106    2.132236
O      0.739340    2.773645   -1.984328
O      0.828256    3.688640    0.247201
O     -1.842767   -1.049483    1.795294
O     -0.866971    1.842237   -0.153396
S      0.643709    2.380836   -0.515730
H      5.849533   -1.504297    0.123662
H      4.735147   -2.432051    1.159537
H      5.609718   -1.025656    1.817434
H     -3.276640   -1.913872    3.075892
H     -1.636612   -1.537216    3.833084
H     -2.798115   -0.248563    3.446821
H     -4.893876   -0.919500   -3.440388
H     -5.144106    1.033797   -2.034274
H     -2.858432   -2.246995   -3.290619
H     -3.376711    1.669885   -0.480771
H     -1.034912   -1.632030   -1.720674
H      3.999401    0.475370    2.421676
H      3.749331   -1.284709   -1.412505
H      2.229170    2.008775    1.876128
H      1.954661    0.237409   -2.027280
H     -0.079507   -0.089131   -0.164690
