53

C     -7.246953    2.817580    0.531114
C      8.790284    0.804077   -0.714786
C     -5.942651    2.919622    1.326226
C      7.496191    0.807930   -0.688541
C     -5.148230    1.668689    0.980604
C     -3.836777    1.561913    1.675803
C     -3.190316    0.274957    1.147411
C     -2.790126    0.511728   -0.281934
C     -2.331402   -0.739010   -0.956729
C     -1.233591   -1.466386   -0.309056
C      0.014303   -0.646830   -0.144786
C      1.105994   -1.515159    0.506387
C      1.519694   -2.646237   -0.341426
C      2.219451   -2.393655   -1.618527
C      3.559707   -1.858306   -1.617022
C      3.963958   -0.556449   -1.090172
C      5.509975   -0.507899   -1.143134
C      6.070025    0.811544   -0.660715
O      5.576203    1.174165    0.584529
H     -7.714111    3.823036    0.560347
H     -7.961269    2.149566    1.051700
H     -7.035565    2.465222   -0.512458
H      9.801223    0.818444   -0.735394
H     -6.135917    2.912456    2.416455
H     -5.391037    3.841602    1.089135
H     -5.083712    1.590700   -0.101921
H     -5.789939    0.804351    1.351648
H     -3.192169    2.449718    1.459221
H     -3.982554    1.482088    2.763191
H     -2.324163    0.041512    1.815006
H     -3.886222   -0.573648    1.149225
H     -3.562610    0.962367   -0.902475
H     -1.897026    1.229768   -0.270226
H     -3.219586   -1.406878   -1.157644
H     -2.000371   -0.424766   -1.996945
H     -1.068331   -2.434051   -0.854930
H     -1.569034   -1.797331    0.733844
H     -0.194220    0.147121    0.599632
H      0.331638   -0.172405   -1.069469
H      0.530128   -1.985851    1.381062
H      1.832959   -0.885351    0.970569
H      2.144227   -3.331844    0.328141
H      0.640279   -3.289613   -0.547421
H      1.552393   -1.669403   -2.196480
H      2.130079   -3.325123   -2.247616
H      4.256643   -2.634321   -1.150058
H      3.959900   -1.877580   -2.713507
H      3.687324    0.277463   -1.816827
H      3.715125   -0.241692   -0.099987
H      5.900632   -1.326220   -0.452199
H      5.871000   -0.693152   -2.153146
H      5.742432    1.601422   -1.398678
H      5.806117    0.450117    1.256185
