38

C     -2.372798    1.322686    1.065205
C     -0.847456   -2.480563    1.127875
C      3.262428   -0.323003    0.661148
C     -0.189513    2.117906    0.363017
C      0.928548    1.155785    0.668758
C     -2.673360   -1.161238    0.119708
C     -1.434547    1.541241   -0.139080
C     -1.420262   -1.519875    0.182713
C      2.843521    0.229898   -0.682297
C      1.383389    0.616157   -0.653091
C     -2.853919   -0.171060   -0.966604
C     -1.459727    0.436638   -1.072790
C     -0.699063   -0.795699   -0.869082
C      0.758814   -0.757329   -0.750089
C      2.784922   -0.880147   -1.668759
O     -3.875645    0.092766   -1.618645
O      3.758158   -1.374972   -2.281761
O      1.477097   -1.313302   -1.830908
H     -3.402627    1.113585    0.727914
H     -2.418310    2.325951    1.566680
H     -1.963167    0.614363    1.778862
H     -0.375281   -3.328603    0.558841
H     -1.596917   -2.939060    1.796864
H     -0.026461   -2.040653    1.726746
H      3.489902   -1.414249    0.577228
H      4.207517    0.181965    1.003872
H      2.518777   -0.128692    1.460097
H      0.262959    2.878931   -0.337275
H     -0.365213    2.689134    1.304177
H      1.723235    1.727653    1.175943
H      0.551180    0.399020    1.366888
H     -3.470353   -1.522605    0.755278
H     -1.978247    2.396747   -0.659691
H      3.502105    1.056377   -1.009828
H      1.176133    1.256876   -1.508471
H     -1.387457    0.738801   -2.148572
H     -0.897036   -1.427839   -1.799860
H      1.078677   -1.313593    0.162191
