38

C     -1.371388   -2.177226    1.044110
C     -1.481729    3.220356    0.263513
C      3.708694   -0.293578    0.147701
C      0.089233   -2.059128   -1.000243
C      1.242586   -1.497637   -0.238277
C     -2.940827    1.250980    0.547614
C     -1.259626   -1.768885   -0.401873
C     -1.832769    1.783997    0.118414
C      2.616319    0.610242   -0.322743
C      1.337398   -0.044599   -0.633901
C     -2.945044   -0.161260    0.236475
C     -1.793378   -0.418920   -0.694884
C     -0.958504    0.747469   -0.542867
C      0.291591    0.662966    0.237069
C      2.247272    1.658363    0.640246
O     -3.720085   -1.073376    0.621575
O      3.060323    2.184116    1.457915
O      0.897919    1.900406    0.438363
H     -1.593788   -1.322423    1.722441
H     -0.470076   -2.743953    1.398229
H     -2.223735   -2.897204    1.230942
H     -2.334597    3.870206   -0.077548
H     -0.618264    3.499948   -0.347589
H     -1.234640    3.472787    1.324208
H      4.643013    0.335612    0.220383
H      3.915627   -1.026202   -0.649239
H      3.553106   -0.735252    1.135390
H      0.200359   -3.169666   -1.174670
H      0.094678   -1.614584   -2.017353
H      1.083963   -1.542837    0.859036
H      2.170216   -2.063598   -0.438751
H     -3.762821    1.741231    1.062448
H     -1.941682   -2.490112   -0.957113
H      3.008368    1.142726   -1.238367
H      1.076759    0.063119   -1.701741
H     -2.270851   -0.402980   -1.721749
H     -0.703605    1.205478   -1.541567
H      0.219987    0.153415    1.201906
