88

C     -3.193549    3.752466   -2.538662
C      1.109864   -1.379853   -4.746322
C     -6.846094    3.124078    0.624315
C     -5.033504   -3.932755    3.333594
C      6.109954   -3.607499   -0.136859
C      7.787834    2.960752    3.624487
C     -3.091716    2.704558   -3.429846
C     -2.716974    3.581732   -1.257081
C      1.349301   -2.407173   -3.859505
C      1.095025   -0.094468   -4.261534
C     -5.626917    3.046790    1.248354
C     -7.279321    2.056229   -0.137355
C     -4.113829   -2.932999    3.573397
C     -5.694333   -3.901707    2.121514
C      5.770205   -3.395369    1.183428
C      5.989324   -2.530983   -0.990425
C      6.629084    2.535424    4.236552
C      7.956420    2.621198    2.295885
C     -2.529413    1.509843   -3.061939
C     -2.151750    2.365412   -0.905184
C      1.568630   -2.166474   -2.525234
C      1.317393    0.152421   -2.907502
C     -4.852496    1.912096    1.109486
C     -6.492441    0.938946   -0.260876
C     -3.876195   -1.948864    2.628267
C     -5.465582   -2.929411    1.177091
C      5.331577   -2.188347    1.655301
C      5.544249   -1.291647   -0.531204
C      5.657312    1.803448    3.590931
C      7.011169    1.896996    1.630371
C     -0.811219   -0.191247    0.487034
C      0.390401   -1.084187    0.784246
C     -2.477774   -1.679321   -1.626112
C      2.234818    1.193753    0.076772
C     -3.916081   -1.216771   -1.479744
C      3.723396    1.462899    0.059461
C     -2.041130    1.306897   -1.781198
C      1.558419   -0.865506   -2.007808
C     -5.255116    0.827761    0.356218
C     -4.541233   -1.923754    1.416825
C      5.209854   -1.101942    0.793453
C      5.842437    1.471905    2.259674
P     -1.289847   -0.292262   -1.292628
P      1.854390   -0.574417   -0.227005
P     -4.186166   -0.613721    0.225592
P      4.641630    0.522406    1.324642
H     -3.638102    4.699226   -2.827578
H      0.936100   -1.580272   -5.808788
H     -7.453003    4.014643    0.733846
H     -5.206557   -4.696571    4.087737
H      6.450933   -4.587719   -0.448113
H      8.552051    3.536886    4.132986
H     -3.467889    2.847627   -4.431983
H     -2.805178    4.406804   -0.579589
H      1.353898   -3.417110   -4.280101
H      0.910957    0.736459   -4.924126
H     -5.310308    3.905245    1.843176
H     -8.256391    2.143724   -0.624881
H     -3.598784   -2.967933    4.531994
H     -6.416458   -4.677906    1.920741
H      5.854843   -4.227711    1.883257
H      6.242894   -2.642048   -2.037808
H      6.481784    2.790020    5.268471
H      8.853859    2.932586    1.765852
H     -2.446855    0.674462   -3.768236
H     -1.787756    2.271961    0.115832
H      1.754662   -2.961247   -1.835467
H      1.297548    1.166867   -2.568897
H     -3.895133    1.915129    1.631040
H     -6.851402    0.124173   -0.857413
H     -3.135133   -1.173234    2.863147
H     -5.970127   -2.882469    0.219299
H      5.062076   -2.003640    2.681330
H      5.469844   -0.476705   -1.259837
H      4.749171    1.463778    4.049428
H      7.172010    1.648781    0.597393
H     -1.669171   -0.445413    1.107064
H     -0.480973    0.840371    0.753497
H      0.063142   -2.120745    0.555258
H      0.646725   -0.968864    1.847314
H     -2.229368   -2.526231   -0.976329
H     -2.358051   -1.946643   -2.711909
H      1.771913    1.491113    1.038811
H      1.760928    1.817654   -0.701755
H     -4.011560   -0.329934   -2.170441
H     -4.633158   -1.953000   -1.839042
H      3.953406    2.525295    0.131296
H      4.082603    1.135259   -0.959340
