36

C     -1.094011   -1.111842    1.631074
C     -2.740261   -0.035542    0.175428
C     -0.454745    1.795012    0.836034
C      2.338630    1.737400   -0.475230
C      2.673215   -0.993175    1.253167
C     -1.134603   -0.481873   -2.018782
C     -0.729044    0.872175   -1.471440
C      0.596048   -1.463247   -0.617240
C     -0.895593   -1.397837   -0.852526
C     -1.318823   -0.490258    0.295685
C     -0.319705    0.610759   -0.022035
C      0.981689   -0.096311   -0.065775
O      1.931653    0.499681   -0.905608
O      1.540335   -0.237574    1.182566
H     -2.093522   -1.447580    2.032312
H     -0.483755   -2.014405    1.525960
H     -0.697684   -0.406714    2.399322
H     -2.865683    0.998303   -0.162537
H     -3.249519   -0.109704    1.175820
H     -3.242820   -0.731219   -0.548514
H     -1.387817    1.622869    1.454304
H     -0.705040    2.671825    0.212578
H      0.404284    1.990811    1.463523
H      3.130918    2.148870   -1.172729
H      1.516661    2.505417   -0.540525
H      2.752841    1.791790    0.533395
H      3.506526   -0.600497    0.625680
H      3.019695   -0.993015    2.336193
H      2.565259   -2.062095    1.013321
H     -2.218566   -0.499360   -2.300034
H     -0.533072   -0.761879   -2.905777
H     -1.515317    1.629302   -1.555374
H      0.149149    1.256971   -2.065391
H      0.884427   -2.297703    0.019921
H      1.087163   -1.558293   -1.606983
H     -1.398914   -2.341062   -0.879778
