60

C     -1.973213    2.297939   -0.396233
C      1.767778    1.891589    1.341182
C     -4.491676    0.217239   -0.928708
C     -5.294651   -0.303551    1.356053
C      3.788576   -0.328602    1.920758
C      5.539484   -0.072213    0.197849
C      0.034603   -0.675445   -3.293797
C     -2.654096   -0.710808    1.834729
C      3.422401    0.008141   -1.472423
C     -2.115134   -1.483064   -0.419283
C      2.050542   -1.417885    0.078566
C     -1.825410    0.917232    0.245001
C      1.878129    1.062424    0.083321
C     -3.220371   -1.397192    0.582902
C      3.401532   -1.118619   -0.466088
C     -3.016191    0.602552    1.119760
C      3.332565    0.941155   -0.253621
C     -1.519016   -0.141038   -0.734485
C      1.132352   -0.222736    0.131828
C     -4.085106   -0.170341    0.425839
C      4.064370   -0.118321    0.488716
B      0.030631   -0.359379   -1.014514
O      0.256123   -1.352546   -2.096994
H     -1.939845    2.208869   -1.514819
H     -2.890924    2.812152   -0.045102
H     -1.128049    2.966951   -0.134778
H      1.318440    2.893809    1.157802
H      1.111682    1.400737    2.089041
H      2.773309    2.106267    1.792199
H     -4.092701    1.167719   -1.314424
H     -4.219074   -0.597148   -1.647295
H     -5.610374    0.302998   -1.022665
H     -5.589993   -1.376739    1.362596
H     -5.069622   -0.005444    2.380432
H     -6.160249    0.251980    0.954095
H      2.744518   -0.350125    2.228564
H      4.398609    0.398967    2.500816
H      4.213142   -1.336414    2.207317
H      6.151483   -0.087442    1.119069
H      5.879558   -0.932333   -0.426199
H      5.816842    0.844685   -0.393112
H     -1.067726   -0.635797   -3.436574
H      0.528792   -1.184103   -4.141725
H      0.426614    0.363026   -3.194612
H     -1.571072   -0.880144    1.938376
H     -3.274482   -0.920467    2.722911
H      2.591268    0.090173   -2.159283
H      4.427172    0.050114   -1.952969
H     -1.355608   -2.203252   -0.022944
H     -2.537671   -1.982411   -1.336439
H      1.591049   -2.204206   -0.585270
H      2.160321   -1.921863    1.067939
H     -0.962213    1.001940    0.953424
H      1.413369    1.682151   -0.740495
H     -3.729961   -2.336884    0.760644
H      3.982255   -2.003472   -0.696013
H     -3.303943    1.417865    1.775411
H      3.807522    1.908138   -0.378179
H     -1.948825    0.174402   -1.731276
H      0.612161   -0.281894    1.133180
