51

C     -3.331465    0.861573    0.690864
C     -3.118186    1.084624   -1.721288
C      1.854183    1.516872    1.271846
C     -0.705814   -0.077280    1.951314
C     -2.503174   -2.014102    0.311249
C      3.085428   -1.782616    0.307622
C      1.798971   -1.457682    1.024747
C     -0.624572    1.761315   -0.423420
C     -3.082945   -1.134342   -0.738434
C     -1.011515   -1.936549    0.419636
C      0.815945    1.673708   -0.915259
C      4.780393   -0.544562   -1.182286
C      3.750616    1.325735   -1.433506
C      3.599437   -0.643534   -0.480911
C      2.938789    0.545567   -0.637322
C     -1.166824    0.348274   -0.482820
C      0.980367   -0.572612    0.162726
C     -2.648887    0.286440   -0.495298
C      1.607588    0.776565    0.002404
C     -0.494686   -0.517047    0.542480
O      4.829608    0.647131   -1.735204
H     -3.347022    0.190332    1.583854
H     -2.979998    1.879416    0.915530
H     -4.422502    0.980447    0.420786
H     -2.442457    0.936906   -2.573209
H     -3.254755    2.131504   -1.422151
H     -4.126589    0.714347   -2.044474
H      2.385053    0.936892    2.051375
H      0.962418    2.039348    1.678505
H      2.569582    2.356638    1.016147
H      0.273178   -0.101891    2.514131
H     -1.352394   -0.802384    2.528258
H     -1.117332    0.919970    2.082915
H     -2.949684   -1.818230    1.311851
H     -2.760990   -3.064442    0.063100
H      2.857051   -2.620827   -0.413800
H      3.831005   -2.176106    1.031001
H      2.054449   -1.072350    2.011877
H      1.285484   -2.437299    1.192239
H     -1.197454    2.372081   -1.159401
H     -0.723125    2.235760    0.547861
H     -2.796497   -1.514445   -1.736954
H     -4.183090   -1.189326   -0.678883
H     -0.741788   -2.451706    1.388688
H     -0.514117   -2.443725   -0.429831
H      0.762551    1.203238   -1.928318
H      1.273351    2.667285   -0.952290
H      5.561168   -1.282692   -1.291641
H      3.580791    2.341393   -1.786801
H     -0.822099   -0.043725   -1.487797
H      0.982553   -1.033887   -0.871708
