40

C     -1.634736    3.176248   -0.993093
C     -0.779821    1.279935   -2.402248
C     -3.382125   -3.208570    0.724857
C      4.689373   -1.560294   -0.534635
C      3.821251   -2.291449    0.237979
C      4.662825   -0.202761   -0.467464
C      2.933938   -1.681466    1.070422
C      3.772026    0.419925    0.368655
C      1.939482    0.341998    2.051571
C     -3.444777    1.096848   -0.155761
C      2.899726   -0.296660    1.145389
C     -2.302335    0.455917    0.612490
C     -2.305925   -1.025098    0.392185
C      0.225040    1.041045    0.405613
C     -1.609417    1.699448   -1.209985
N     -1.141243    1.049135   -0.011363
O     -1.401471   -1.598673   -0.249263
O      1.126353    1.611469   -0.257882
O     -3.326816   -1.794818    0.903301
O      0.618057    0.398311    1.569504
O     -2.904917    1.233770   -1.422779
H     -1.696920    3.380698    0.104350
H     -2.524035    3.671829   -1.461175
H     -0.714435    3.684457   -1.352748
H      0.170807    1.822201   -2.487786
H     -0.519619    0.200633   -2.238795
H     -1.360600    1.330994   -3.337211
H     -4.160372   -3.393237   -0.045421
H     -3.627567   -3.710203    1.686761
H     -2.423370   -3.569199    0.318363
H      5.387158   -2.087437   -1.190828
H      3.864846   -3.381950    0.163667
H      5.343247    0.382700   -1.072634
H      2.265152   -2.260846    1.665128
H      3.777663    1.518495    0.402080
H      2.277963    1.394264    2.265050
H      1.904282   -0.219910    3.012240
H     -3.804599    2.023571    0.289604
H     -4.257714    0.330967   -0.197511
H     -2.356378    0.704664    1.699373
