28

C      2.247893   -0.846610    1.191335
C     -1.264551    0.205245    1.458786
C     -2.226085   -1.148760   -0.368593
C      1.266716    1.293223    0.312350
C      0.200133    1.778166   -0.627506
C     -0.119932   -0.428438   -1.721576
C      1.458264   -0.182052    0.075926
C     -0.798115    0.744623   -0.995844
C      0.224735   -0.907837   -0.297835
C     -1.066294   -0.269537    0.090308
H      3.291292   -0.459045    1.109026
H      1.837136   -0.673549    2.181446
H      2.312790   -1.924738    0.918362
H     -2.225806   -0.145797    1.894051
H     -1.358721    1.330924    1.440880
H     -0.489119   -0.083336    2.195313
H     -2.877808   -0.630467   -1.081355
H     -2.877794   -1.423611    0.503680
H     -1.893119   -2.083980   -0.817512
H      1.070828    1.545195    1.373247
H      2.218192    1.835779    0.062138
H      0.686376    2.134611   -1.582454
H     -0.330112    2.662276   -0.229195
H      0.748699   -0.148052   -2.315246
H     -0.825129   -1.087256   -2.244365
H      2.145244   -0.254540   -0.822127
H     -1.663655    1.157248   -1.504736
H      0.307942   -1.989685   -0.198506
