40

C     -0.987872   -1.294498   -0.989398
C     -3.119815    1.370131   -2.035660
C      5.881271   -0.866780    0.618002
C      0.693126    1.399718   -1.212635
C      2.411636   -0.827914    1.948193
C      1.065536   -0.979102    1.621867
C     -0.596448    1.986940   -0.626469
C     -3.193675   -1.059563    0.906623
C     -1.751772   -1.015140    1.294053
C      2.617447    0.777289    0.202487
C      1.291465    0.612856   -0.101317
C      3.189757    0.058747    1.229664
C      0.506143   -0.259102    0.597747
C     -1.519354    0.981724   -0.075790
C     -3.494723   -0.373924   -0.366700
C     -0.904588   -0.378873    0.209573
N     -2.695618    0.706148   -0.865357
O     -4.495342   -0.774824   -1.014796
S      4.932358    0.301411    1.598803
H     -1.595392   -2.204084   -0.804679
H     -1.424854   -0.800726   -1.875541
H      0.015795   -1.654040   -1.295677
H     -2.678418    0.948534   -2.983708
H     -4.216338    1.247398   -2.154827
H     -2.932682    2.455075   -2.080478
H      6.107099   -0.488066   -0.403298
H      6.787070   -1.227520    1.148884
H      5.243305   -1.780291    0.468476
H      1.332203    2.270909   -1.467015
H      0.517306    0.829153   -2.116766
H      2.886571   -1.375153    2.744976
H      0.481973   -1.685004    2.207449
H     -1.046584    2.684656   -1.355574
H     -0.212479    2.657543    0.202537
H     -3.545852   -2.108364    0.847436
H     -3.836862   -0.557568    1.686617
H     -1.404931   -2.039193    1.541428
H     -1.649101   -0.392668    2.206178
H      3.253018    1.486217   -0.367012
H     -1.910379    1.367948    0.911700
