51

C      3.371864    0.806843   -0.560704
C      3.246378   -1.588993   -0.874227
C     -1.744487    1.133559   -1.729087
C      0.759801    1.955007    0.395032
C      2.295028    0.245583    2.275753
C     -3.236945    0.536059    1.420859
C     -1.930887    1.230304    1.097960
C      0.762915   -0.414742   -1.686061
C      2.994702   -0.725192    1.382605
C      0.809650    0.204544    2.075415
C     -0.632871   -1.025379   -1.678789
C     -4.793249   -1.154948    0.224272
C     -3.565463   -1.652051   -1.473778
C     -3.629176   -0.421504    0.352470
C     -2.858683   -0.748203   -0.734428
C      1.206996   -0.442589   -0.226430
C     -1.023367    0.188301    0.487915
C      2.678953   -0.410669   -0.063556
C     -1.503610   -0.099122   -0.881061
C      0.436116    0.513430    0.617158
O     -4.695257   -1.862038   -0.874148
H      3.003182    1.031927   -1.575008
H      4.459947    0.529084   -0.704359
H      3.382110    1.660475    0.126697
H      3.452223   -1.216764   -1.915661
H      4.228600   -1.844176   -0.444688
H      2.538955   -2.438878   -0.890451
H     -2.755902    1.559056   -1.526892
H     -0.936445    1.860236   -1.702531
H     -1.805946    0.775533   -2.799504
H      1.157686    2.203143   -0.587814
H      1.382269    2.397843    1.229006
H     -0.213757    2.523953    0.486486
H      2.738141    1.245577    2.223002
H      2.469773   -0.106786    3.333582
H     -4.019205    1.335186    1.486606
H     -3.152114    0.052348    2.406106
H     -1.504241    1.652735    2.032249
H     -2.191709    2.044113    0.371592
H      0.740993    0.606808   -2.084885
H      1.411414   -1.109392   -2.235223
H      2.548465   -1.740622    1.585287
H      4.056631   -0.804532    1.590278
H      0.322687    0.937217    2.738760
H      0.439426   -0.795741    2.310160
H     -1.048722   -1.132779   -2.680925
H     -0.514174   -2.014479   -1.152465
H     -5.639818   -1.160246    0.892943
H     -3.205618   -2.100399   -2.408091
H      0.897315   -1.471732    0.138455
H     -1.190570   -0.746909    1.101049
