22

C      3.743377   -0.191532   -1.136565
C     -0.308880   -0.365124    1.026208
C      2.376812    0.232073   -0.781980
C      0.137484   -0.369397   -0.217962
C     -1.727156   -0.019134    1.243922
C     -0.828182   -0.029933   -1.262564
C     -2.589694   -0.735726    0.252016
C     -2.189711   -0.596060   -1.126231
N      1.494346   -0.676486   -0.568549
O      2.110427    1.592090   -0.696072
O     -1.902485    1.383648    1.137786
O     -0.461456    0.717765   -2.217848
O     -3.251720    0.166651   -0.696264
H      4.404810   -0.254182   -0.225619
H      4.202033    0.534231   -1.833795
H      3.761202   -1.175157   -1.679232
H      0.378481   -0.613811    1.825091
H     -2.038612   -0.233298    2.300321
H     -3.283213   -1.539129    0.611930
H     -2.490081   -1.321707   -1.928512
H      1.280618    1.885925   -0.203395
H     -2.818400    1.608294    0.894935
