31

C     -1.994955   -1.756342   -0.470643
C      1.690081    0.659042    1.321201
C     -1.512664    0.305885    1.605740
C      0.361200   -1.011204   -0.009813
C      1.838056    0.533572   -1.173189
C     -1.000826   -0.682458   -0.619303
C      2.954666   -0.411024   -1.081748
C     -2.390149    1.372558   -0.392096
C      0.944329    0.384101    0.060694
C     -1.285351    0.581352    0.136423
O      3.790524   -0.408232   -2.048123
O      3.141374   -1.283746   -0.024389
O     -3.576478    0.957146   -0.350067
O     -2.155178    2.613970   -0.958951
O     -0.096047    1.282364   -0.042618
H     -2.462326   -1.876858    0.501920
H     -1.485188   -2.738273   -0.700081
H     -2.753053   -1.653784   -1.296608
H      1.427545    1.676217    1.722538
H      2.794332    0.728192    1.113240
H      1.540695   -0.105629    2.084416
H     -2.511876    0.709867    1.932392
H     -1.461348   -0.747560    1.874422
H     -0.764608    0.842843    2.231193
H      0.240524   -1.456133    0.998773
H      0.934820   -1.686187   -0.673928
H      2.184454    1.586402   -1.180776
H      1.242435    0.320787   -2.075725
H     -0.830772   -0.450081   -1.673414
H      4.063478   -1.644825    0.161236
H     -2.867695    3.358037   -0.972715
