22

C      2.584680    0.540049    0.064168
C     -0.262168    0.203025    0.766735
C      2.417750   -0.929658    0.029455
C      0.057535   -0.684419   -0.160958
C     -1.479932    0.989246    0.619128
C     -0.850895   -0.821789   -1.293096
C     -2.651226    0.251733    0.069690
C     -2.281980   -0.630521   -1.061633
N      1.259345   -1.479632   -0.073579
O      3.514042   -1.766054    0.107578
O     -1.803144    1.665087    1.806175
O     -0.360429   -1.102766   -2.435714
O     -2.819308   -1.104394    0.176520
H      2.720354    0.833321    1.131679
H      1.741193    1.079693   -0.373722
H      3.515213    0.829002   -0.461175
H      0.431390    0.283026    1.600572
H     -1.273865    1.822819   -0.121980
H     -3.628900    0.797103    0.020726
H     -2.975993   -0.650589   -1.927335
H      3.522808   -2.686360   -0.325050
H     -1.376470    2.562076    1.841815
