23

C     -1.044087    0.743745    1.093869
C      3.981721    0.309367    0.610846
C     -1.950156   -0.593937   -0.832951
C     -3.225694    0.180795   -0.981315
C      0.412962   -0.700947   -0.267271
C     -0.815127    0.189937   -0.261164
C      2.772604   -0.456140    0.208008
Br    -3.033357    1.705533   -2.138370
O      2.896352   -1.665900   -0.071372
O      1.510372    0.109580    0.127184
H     -0.212787    0.431086    1.777687
H     -1.974702    0.385962    1.583043
H     -0.993117    1.866548    1.092439
H      3.715074    1.306821    0.979020
H      4.570465    0.465058   -0.331676
H      4.575333   -0.195517    1.377838
H     -1.658147   -0.964422   -1.836398
H     -2.173948   -1.486438   -0.213441
H     -3.641651    0.448203    0.009323
H     -3.968491   -0.496565   -1.453478
H      0.574630   -1.166699   -1.257861
H      0.258233   -1.451010    0.534716
H     -0.576484    1.034939   -0.961440
