31

C     -3.438929    0.176805   -1.780907
C     -1.586885    1.646735   -0.870002
C      1.211555   -2.174383    1.444730
C      0.437791   -2.315369   -0.957075
C      3.156900    2.741998    1.196391
C     -1.741667   -0.671992   -0.208655
C     -2.225773    0.310121   -0.911717
C     -0.542980   -0.516949    0.640117
C      0.743384   -0.003488    0.081850
C      1.633300    0.817052    0.948929
C      0.586304   -1.442500    0.295473
O      1.804858    0.533242    2.167313
O      2.304954    1.916542    0.461268
H     -3.496698   -0.816170   -2.255218
H     -3.445713    0.949835   -2.573044
H     -4.323877    0.356544   -1.142178
H     -0.993864    1.714703    0.062261
H     -2.356011    2.452788   -0.786448
H     -0.985015    1.828325   -1.791394
H      1.098845   -1.681254    2.414857
H      2.276288   -2.480490    1.233539
H      0.661684   -3.157248    1.531550
H      1.483750   -2.562839   -1.271873
H      0.007681   -1.670488   -1.727354
H     -0.129715   -3.226318   -0.748746
H      3.272632    3.694603    0.607336
H      4.161780    2.272383    1.225135
H      2.748020    2.958777    2.204242
H     -2.249927   -1.642176   -0.256676
H     -0.757684   -0.369540    1.735688
H      0.685013    0.360751   -0.969392
