16

C     -0.937442   -1.117704    0.766885
C     -0.923619    0.251770    0.119840
C      0.310102    0.463202   -0.726343
C      1.562320    0.331791    0.022050
O     -2.018963    0.314640   -0.772099
O      0.199152    1.701906   -1.325140
O      2.354649    1.309485    0.035493
O      1.950518   -0.790670    0.723204
H     -0.141737   -1.780180    0.398090
H     -1.903839   -1.653789    0.534085
H     -0.816857   -0.991852    1.879341
H     -1.065840    1.068954    0.862046
H      0.300041   -0.318253   -1.514547
H     -1.754719   -0.254344   -1.546464
H      0.017583    2.364063   -0.595719
H      2.868651   -0.899018    1.139278
