58

C      3.079687    3.146069   -2.025462
C      4.886438   -2.267657    2.390530
C     -4.252932    2.489732   -2.537034
C     -3.841277   -2.880486    1.924188
C      2.595360    3.193401   -0.747345
C      3.177474    1.954342   -2.694417
C      4.449986   -2.892308    1.245194
C      4.332085   -1.048546    2.703898
C     -3.918522    1.181006   -2.772795
C     -3.821781    3.194534   -1.424803
C     -3.913265   -1.623696    2.470013
C     -3.074770   -3.027489    0.795827
C      2.206940    2.008010   -0.147397
C      2.784287    0.798501   -2.071325
C      3.492375   -2.312846    0.445377
C      3.358928   -0.463049    1.888269
C     -3.119444    0.511093   -1.881487
C     -3.018975    2.468882   -0.560784
C     -3.268592   -0.541691    1.947970
C     -2.407125   -1.942425    0.242491
C      2.284154    0.790565   -0.770898
C      2.911924   -1.074965    0.739599
C     -2.662562    1.159581   -0.761488
C     -2.490555   -0.716730    0.793625
C      0.548552   -0.332235    0.586038
C     -0.467180    0.203799   -0.403091
C      1.879132   -0.451643   -0.125023
C     -1.796370    0.463959    0.220663
O      0.183385   -1.570503    1.093931
O     -0.619474   -0.620307   -1.496950
O      1.646935   -1.392216   -1.162558
O     -1.634701    1.377233    1.319709
H      3.376754    4.095909   -2.468806
H      5.638823   -2.750186    2.995487
H     -4.888251    3.024754   -3.243580
H     -4.339497   -3.752153    2.315099
H      2.499506    4.113478   -0.177317
H      3.565745    1.963239   -3.703114
H      4.879955   -3.850973    0.992099
H      4.668373   -0.545241    3.605577
H     -4.287846    0.657753   -3.677865
H     -4.094209    4.232891   -1.248910
H     -4.522108   -1.494685    3.369448
H     -2.979343   -4.017887    0.312287
H      1.825202    2.058596    0.850657
H      2.849484   -0.161016   -2.574848
H      3.140477   -2.802734   -0.464720
H      2.973942    0.487127    2.199005
H     -2.863740   -0.533797   -2.083024
H     -2.676236    3.027123    0.322546
H     -3.324059    0.458399    2.380258
H     -1.839999   -2.194836   -0.649796
H      0.651635    0.352107    1.442156
H     -0.001458    1.161086   -0.788735
H      0.514887   -1.731155    2.012951
H     -0.083510   -0.269787   -2.246438
H      1.146820   -2.171319   -0.811909
H     -1.341464    0.861393    2.117025
