37

C      0.459966    1.759872   -1.461754
C     -1.033158   -2.040116    1.212485
C     -1.742692   -1.275038   -0.978245
C     -1.327923    2.081055    0.102880
C     -2.612545    1.264061    0.148852
C      2.136659    0.221395    1.373612
C      2.305156   -0.836816   -0.880664
C      0.821055    0.142701    1.394992
C      0.831741   -0.887458   -0.893087
C      4.018940    0.708676   -0.067198
C     -0.213915    1.246334   -0.453941
C      2.883982    0.072945    0.134882
C     -2.331741    0.033872    0.943282
C     -1.241912   -0.780771    0.389933
C      0.086581   -0.099895    0.132767
Br     5.026076    0.542983   -1.670736
Br    -2.234330    0.479581    2.800332
H      0.234406    2.734529   -1.879586
H      1.273429    1.234730   -1.926014
H     -0.667100   -2.853311    0.562117
H     -2.054477   -2.329798    1.596705
H     -0.304344   -1.899473    2.023259
H     -2.874149   -1.329360   -0.955163
H     -1.428216   -2.296730   -1.202247
H     -1.520507   -0.515605   -1.728882
H     -1.118566    2.465977    1.100461
H     -1.542550    2.935870   -0.565443
H     -2.992138    1.042732   -0.865212
H     -3.378703    1.873724    0.668057
H      2.668804    0.410398    2.320775
H      2.732303   -0.626753   -1.888487
H      2.710129   -1.864697   -0.618550
H      0.279386    0.256092    2.356619
H      0.492209   -0.613797   -1.939498
H      0.531096   -1.985145   -0.845487
H      4.396724    1.349634    0.709892
H     -3.269678   -0.622400    0.848292
