55

C      6.210393   -2.521814   -1.001224
C      6.669818   -2.179032    0.399090
C      5.428313   -1.870321    1.206789
C      4.725080   -0.681896    0.532773
C      3.473457   -0.316531    1.289567
C      2.810945    0.857189    0.627216
C      2.442900    0.515991   -0.771889
C      1.748357    1.662126   -1.487216
C      0.479094    2.080352   -0.811809
C     -0.531584    0.960520   -0.726958
C     -1.782226    1.427953   -0.041164
C     -2.480580    2.563755   -0.724728
C     -3.708359    2.912028    0.085613
C     -6.180976   -2.409172    0.639180
C     -5.470219   -0.216904    1.409651
C     -5.243683   -1.235748    0.331672
C     -4.615453    1.749024    0.164294
O     -7.479798   -1.888090    0.689084
O     -3.956740   -1.717819    0.281413
O     -5.412027    1.498113   -0.789988
O     -4.655023    0.896452    1.236164
H      6.918751   -3.193304   -1.498897
H      6.138310   -1.582602   -1.611613
H      5.186145   -2.943570   -0.966967
H      7.191425   -3.060648    0.844622
H      7.330616   -1.298904    0.319091
H      4.774202   -2.766259    1.165659
H      5.644772   -1.671066    2.254863
H      4.496888   -1.048835   -0.495155
H      5.385149    0.179014    0.449511
H      2.806962   -1.208745    1.239369
H      3.687531   -0.114272    2.365790
H      1.879522    1.137461    1.189246
H      3.513669    1.731069    0.621973
H      3.377898    0.322048   -1.369303
H      1.826253   -0.381664   -0.820697
H      2.451926    2.529092   -1.428327
H      1.641441    1.384317   -2.537728
H      0.727256    2.481284    0.182970
H      0.063187    2.927313   -1.395348
H     -0.074451    0.195898   -0.031996
H     -0.693181    0.452280   -1.675965
H     -2.444059    0.547167    0.070214
H     -1.489728    1.699223    1.014506
H     -1.850568    3.426144   -0.924041
H     -2.864717    2.153837   -1.699419
H     -4.189096    3.773876   -0.457499
H     -3.374254    3.256498    1.085601
H     -6.080949   -3.169003   -0.163270
H     -5.898092   -2.789123    1.640428
H     -6.513760    0.131159    1.454646
H     -5.160545   -0.695651    2.384903
H     -5.500484   -0.826895   -0.676440
H     -7.553189   -1.148524    0.033843
H     -3.826515   -2.514794    0.853983
