46

C     -0.945605   -3.234839   -1.924922
C      5.250267   -0.123652    0.330054
C      2.283714    3.860285   -2.138458
C      0.604794   -1.947003    0.334635
C      2.422922   -0.468471   -0.034537
C      1.000641    1.542280   -1.266113
C     -2.402313    1.250963    0.877045
C     -2.187603   -1.161053    2.127596
C     -1.359109   -0.875509   -1.893613
C     -4.397602    1.106011    3.901807
C      1.060950   -0.626705   -0.213706
C      0.375818    0.395931   -0.832906
C     -1.730150    0.225011    0.252720
C     -1.622127   -0.994708    0.886195
C     -1.102714    0.376274   -1.100395
C     -0.891940   -2.070136    0.179964
C      3.070833    0.671921   -0.460551
C      2.358345    1.700540   -1.087753
C     -2.978006    1.091330    2.134120
C     -2.869934   -0.129758    2.768469
N     -1.336849   -2.079166   -1.172640
O      4.435508    0.867480   -0.298740
O      3.032282    2.840314   -1.508584
O     -3.698476    1.929149    2.985506
O     -3.524257   -0.013731    3.990300
H     -0.335423   -3.944809   -1.335422
H     -0.426748   -2.949230   -2.873147
H     -1.865852   -3.774750   -2.230400
H      5.397256   -0.948093   -0.403587
H      6.249653    0.267106    0.563455
H      4.746022   -0.564407    1.219154
H      2.996827    4.694117   -2.379153
H      1.823252    3.479903   -3.084460
H      1.442404    4.219235   -1.507133
H      0.820300   -1.956100    1.423838
H      1.065699   -2.796688   -0.159022
H      2.989969   -1.251700    0.447431
H      0.416615    2.336138   -1.756577
H     -2.492363    2.206471    0.391591
H     -2.114879   -2.103642    2.638585
H     -2.377347   -0.754016   -2.361898
H     -0.643759   -0.919835   -2.739552
H     -5.343287    0.804947    3.393460
H     -4.567840    1.590434    4.874117
H     -1.461636    1.283176   -1.587813
H     -1.168252   -3.051013    0.631037
