37

C     -2.087088   -2.428050   -1.433890
C     -2.070875   -2.288621    0.880496
C     -1.247436    2.870828    1.975657
C      3.648601    1.598455   -0.707558
C     -1.105080    2.993104    0.625237
C     -1.291693    1.634216    2.564032
C      3.321943    1.018037    0.490752
C      2.942211    1.260192   -1.821473
C     -1.007563    1.847172   -0.128995
C     -1.189573    0.483746    1.768402
C      2.285695    0.101661    0.554414
C      1.902407    0.338607   -1.749491
C     -1.046514    0.571647    0.411922
C      1.548044   -0.264127   -0.558617
C     -0.915905   -0.596945   -0.451343
C      0.443048   -1.250561   -0.456621
N     -1.995685   -1.501497   -0.294084
O      0.529346   -2.162793   -1.507264
H     -1.743473   -1.863294   -2.321918
H     -3.154811   -2.703484   -1.503466
H     -1.475539   -3.347730   -1.249867
H     -2.483641   -3.307542    0.575079
H     -2.844516   -1.952706    1.614651
H     -1.100187   -2.560253    1.342002
H     -1.330137    3.733616    2.628236
H      4.472705    2.324801   -0.746736
H     -1.071611    3.978476    0.175018
H     -1.404911    1.504938    3.647083
H      3.908835    1.312969    1.359781
H      3.224850    1.739571   -2.763550
H     -0.893497    1.971078   -1.213098
H     -1.222600   -0.437375    2.312995
H      2.028490   -0.359335    1.514022
H      1.376005    0.105515   -2.656214
H     -1.023792   -0.241196   -1.544635
H      0.593675   -1.846677    0.476355
H      1.480271   -2.276441   -1.807313
