45

C      3.501408    2.097569    0.378464
C      4.859463    1.818321   -1.767346
C      0.416443   -1.669991    1.681681
C     -3.347385   -1.441054    2.842638
C      3.331313    0.071732   -0.964912
C      2.359371   -0.443332    0.011587
C     -2.513967    1.784691   -0.119831
C     -1.821000    1.140338   -1.261970
C     -2.562584   -1.079672   -2.213249
C      3.866150    1.266531   -0.789311
C     -2.239827    1.139455    1.186629
C      1.008658   -0.737614   -0.610759
C     -2.057992   -0.311985    1.273825
C     -0.031591   -1.261330    0.303037
C     -1.692684   -0.334490   -1.218557
C     -1.511148   -0.985903    0.073458
O     -2.162528    1.809124    2.204683
O     -2.103362   -2.270378    0.033265
O     -3.321534   -0.857748    1.600817
O     -1.216056   -0.918318   -2.401632
O      0.600172   -2.065230   -0.715804
H      2.413574    2.324391    0.293178
H      4.076505    3.041490    0.400537
H      3.735887    1.572615    1.332210
H      5.631684    2.410754   -1.276496
H      4.259910    2.410722   -2.497317
H      5.336387    0.993136   -2.314870
H     -0.375950   -2.292260    2.146522
H      0.589726   -0.809268    2.358874
H      1.326993   -2.303628    1.665229
H     -4.365102   -1.832586    3.003348
H     -2.664653   -2.315711    2.860511
H     -3.143201   -0.730559    3.665194
H      3.626368   -0.499641   -1.830423
H      2.188605    0.297754    0.818278
H      2.794531   -1.346755    0.484018
H     -2.156954    2.842891   -0.030330
H     -3.610115    1.863255   -0.279686
H     -0.792497    1.582146   -1.342299
H     -2.329298    1.455010   -2.197159
H     -3.282420   -0.512080   -2.839095
H     -2.935558   -2.091933   -1.954770
H      0.814235   -0.169388   -1.522172
H     -1.419430   -0.526431    2.164126
H     -3.080548   -2.114642    0.155467
