45

C      4.553634    0.909754    1.779509
C      4.011692   -1.063198    0.230644
C      0.438242   -0.275342    1.143693
C     -1.821584    2.533883    1.388265
C      3.046482    1.140619   -0.113539
C      2.335710    0.612109   -1.271783
C     -4.036623   -0.869736   -0.975475
C     -3.192973   -1.963980   -0.358457
C     -1.067865   -2.501409   -1.616063
C      3.833587    0.360500    0.599336
C     -3.783637    0.383776   -0.228262
C      0.844087    0.729989   -1.235680
C     -2.378960    0.608364    0.243359
C     -0.024115    0.145174   -0.229507
C     -1.739796   -1.655272   -0.598351
C     -1.450756   -0.178480   -0.612695
O     -4.643173    1.190662   -0.001298
O     -1.642295    0.224964   -1.953911
O     -2.047978    1.954717    0.147943
O     -0.734480   -2.514741   -0.262252
O      0.193502    1.586212   -0.383505
H      3.845325    0.884006    2.641168
H      4.873580    1.950739    1.584848
H      5.468011    0.307413    2.000629
H      3.075335   -1.646504    0.219745
H      4.412270   -1.129261   -0.823077
H      4.779086   -1.502254    0.868693
H      0.913095   -1.274269    1.165829
H     -0.470215   -0.275242    1.818584
H      1.133400    0.432989    1.625819
H     -1.559302    3.594058    1.225502
H     -1.046044    2.064005    1.992590
H     -2.802450    2.498732    1.916868
H      2.932224    2.172667    0.166396
H      2.550271   -0.492166   -1.376659
H      2.714347    1.141416   -2.191270
H     -5.110497   -1.144446   -0.829278
H     -3.786002   -0.761984   -2.040009
H     -3.501895   -2.917025   -0.880637
H     -3.448935   -2.103157    0.697924
H     -1.503693   -3.463583   -1.958507
H     -0.407856   -1.988773   -2.331759
H      0.402787    0.761920   -2.279031
H     -2.343469    0.353459    1.322270
H     -1.812075    1.178698   -2.027510
