42

C      3.087425   -1.036357   -0.515652
C     -0.678649    0.264558   -2.371297
C     -2.669111    0.360789   -1.011879
C      0.309575    1.015470    2.416713
C      1.981565    1.130330   -0.481755
C     -1.869950   -1.553623    0.694492
C     -1.299836   -0.645040    1.739667
C      0.655029    1.781470   -0.400928
C      0.365124   -1.757157   -0.188162
C      2.195553   -0.107122    0.286441
C     -1.046624   -1.367517   -0.562272
C      0.971373   -0.792409    0.803410
C     -1.152703    0.100370   -0.948948
C     -0.107644    0.147537    1.244098
C     -0.497179    0.984461    0.044138
O     -1.472854    1.890132    0.533612
H      4.101191   -0.535678   -0.532642
H      3.236875   -2.008228   -0.054273
H      2.781310   -1.076864   -1.582441
H     -0.792168    1.310399   -2.719466
H     -1.415358   -0.319099   -3.001044
H      0.294500   -0.184193   -2.575645
H     -3.010048    0.690306   -0.012069
H     -2.868245    1.223954   -1.699727
H     -3.189265   -0.555299   -1.341202
H     -0.304236    1.941105    2.388599
H      1.392194    1.220359    2.428224
H      0.073039    0.519868    3.388184
H      2.813794    1.863517   -0.244423
H      2.170107    0.927330   -1.581646
H     -1.684646   -2.607032    1.040720
H     -2.944451   -1.428373    0.527493
H     -2.064275    0.074405    2.105878
H     -0.956883   -1.204930    2.650944
H      0.361887    2.299067   -1.364133
H      0.762113    2.651625    0.317580
H      0.938213   -1.822760   -1.129501
H      0.303304   -2.797224    0.205928
H      2.823582    0.136930    1.196840
H     -1.391739   -2.009497   -1.372682
H      1.232382   -1.406929    1.716005
H     -1.434268    2.681347   -0.037178
