37

C     -1.589947    2.595239    0.401449
C     -1.025682    2.691359   -1.906386
C     -2.976898   -2.221423    1.035841
C      3.677193   -2.341703   -0.339213
C     -3.239138   -1.605992   -0.164573
C     -1.844412   -1.886673    1.732112
C      3.404102   -1.740037    0.867781
C      3.056741   -1.846624   -1.462595
C     -2.366039   -0.668499   -0.647496
C     -0.964531   -0.924094    1.219314
C      2.527657   -0.667117    0.936037
C      2.185409   -0.774930   -1.371672
C     -1.207486   -0.302180    0.028199
C      1.899206   -0.159336   -0.174885
C     -0.391708    0.740598   -0.616115
C      0.954581    1.002273   -0.061700
N     -1.234741    1.883633   -0.766462
O      1.563771    1.961909   -0.946284
H     -1.734705    1.957313    1.289928
H     -2.600211    3.067647    0.215754
H     -0.913065    3.456250    0.601454
H     -1.826134    3.489654   -1.895501
H     -0.076103    3.221502   -1.987669
H     -1.268820    2.114943   -2.847731
H     -3.686755   -2.970710    1.407761
H      4.372834   -3.194717   -0.400199
H     -4.142719   -1.894154   -0.685989
H     -1.653666   -2.374608    2.666075
H      3.899497   -2.136001    1.758432
H      3.262283   -2.308040   -2.409597
H     -2.622722   -0.214380   -1.598167
H     -0.100022   -0.689499    1.816639
H      2.304835   -0.185468    1.881523
H      1.701573   -0.403966   -2.277656
H     -0.229878    0.356323   -1.679763
H      0.989301    1.450461    0.915429
H      1.896400    1.521048   -1.743749
