39

C      1.916216   -1.790146   -1.320217
C     -1.641928   -1.440365    1.329402
C     -2.060536   -1.830204   -1.034294
C     -0.741299    1.922189   -1.652862
C      3.205960   -0.503550    0.381831
C      2.805364    0.610126    1.291535
C     -2.525713    0.415246   -0.035115
C     -1.597729    1.471599    0.585730
C      0.875028    1.806144    0.238976
C      1.979041   -1.025827   -0.239861
C      1.313201    0.720372    1.165767
C      0.825172   -0.547618    0.560462
C     -0.288003   -0.201295   -0.392539
C     -1.603132   -0.784706   -0.018524
C     -0.405787    1.307209   -0.322663
H      0.964527   -2.152819   -1.741579
H      2.841010   -2.072229   -1.812880
H     -1.174339   -2.444927    1.316428
H     -1.267804   -0.818913    2.151035
H     -2.733092   -1.618711    1.561367
H     -1.592692   -1.619710   -2.000372
H     -1.675461   -2.817903   -0.670840
H     -3.161527   -1.855068   -1.044546
H     -0.718465    1.175880   -2.470148
H      0.023989    2.701814   -1.856800
H     -1.735097    2.415711   -1.657520
H      3.924038   -0.112129   -0.389523
H      3.711356   -1.343159    0.926318
H      3.064451    0.334006    2.342444
H      3.289993    1.579504    1.060525
H     -2.696729    0.708913   -1.075763
H     -3.437402    0.274368    0.557789
H     -1.354123    1.226758    1.622788
H     -2.062514    2.479452    0.463357
H      0.775905    2.794016    0.731470
H      1.614654    1.859438   -0.590654
H      0.889474    0.934265    2.167791
H      0.520709   -1.311933    1.305907
H     -0.066715   -0.445799   -1.434223
