30

C     -4.348937    0.504644   -1.090696
C     -1.603678   -1.329326    2.287963
C     -3.070821    0.249317   -1.826551
C      4.528517    1.840053    0.042419
C      4.751034    0.491095   -0.201629
C      3.302339    2.334710    0.405868
C      3.689843   -0.382997   -0.071255
C      2.263144    1.415241    0.524558
C     -0.975179   -1.299161    0.915821
C      2.457244    0.075896    0.288675
C     -2.066167   -1.000110   -0.056416
C      1.334248   -0.843732    0.427400
O     -3.090874   -1.742773   -0.050295
O      1.459278   -2.076719    0.223029
O     -1.974005    0.055255   -0.944849
O      0.073008   -0.407604    0.791030
H     -4.937186    1.325441   -1.580528
H     -4.978376   -0.412046   -1.115753
H     -4.165059    0.746599   -0.042655
H     -0.940433   -1.763787    3.043535
H     -2.499860   -1.987432    2.210579
H     -1.950320   -0.304290    2.514327
H     -3.196641   -0.640496   -2.480698
H     -2.794883    1.095730   -2.491739
H      5.358403    2.548604   -0.056003
H      5.736392    0.151660   -0.485476
H      3.147033    3.384200    0.591473
H      3.830185   -1.451259   -0.255938
H      1.289486    1.747390    0.804596
H     -0.627736   -2.324106    0.687630
