30

C      5.512406   -0.539417   -0.913208
C      1.531492    1.634681    1.489767
C      4.101125   -0.350106   -1.366387
C     -5.443583    0.218732   -0.355596
C     -4.477194    1.088954   -0.792919
C     -5.042314   -0.813634    0.468963
C     -3.139990    0.958989   -0.434931
C     -3.718788   -0.937438    0.819801
C      1.014986    0.393861    0.793872
C     -2.741617   -0.069806    0.386477
C      1.887289    0.122321   -0.401733
C     -1.355933   -0.259729    0.797344
O      1.413018    0.080030   -1.565549
O     -1.063285   -1.222106    1.549976
O      3.240658   -0.088592   -0.247557
O     -0.328990    0.577530    0.395732
H      5.720669   -1.636983   -0.770193
H      5.730031   -0.051601    0.058217
H      6.216470   -0.092314   -1.658580
H      2.622582    1.488848    1.636665
H      1.007505    1.794032    2.441807
H      1.366111    2.486458    0.770273
H      3.713443   -1.185448   -1.968559
H      4.088324    0.552750   -2.036068
H     -6.490690    0.295043   -0.617526
H     -4.773328    1.909409   -1.443739
H     -5.793512   -1.506887    0.821057
H     -2.381388    1.647228   -0.781916
H     -3.473898   -1.782367    1.478150
H      1.058401   -0.497958    1.446359
