31

C      3.927812    0.809718    0.987560
C     -3.761828    1.520820    0.637494
C      3.627885    0.353712   -0.396909
C      2.548521   -0.697081   -0.477138
C      1.232672   -0.204238    0.085466
C      0.207227   -1.274013   -0.017483
C     -2.800167    0.661145    0.830078
C     -1.140500   -0.963721    0.491653
C     -1.810675    0.187555   -0.186950
C     -2.518189   -0.297932   -1.407304
C     -2.448082   -0.047299    2.070892
O     -2.377710   -1.489137   -1.778020
O     -3.321117    0.560644   -2.121184
O     -3.189067   -0.137087    3.096873
O     -1.178106   -0.561275    1.849480
H      3.389795    0.259583    1.773882
H      3.714264    1.907330    1.073585
H      5.024943    0.703102    1.226781
H     -4.427572    1.808124    1.414214
H     -3.887795    1.956679   -0.341159
H      4.558192   -0.029136   -0.862252
H      3.318084    1.227270   -1.039618
H      2.897990   -1.613170    0.021262
H      2.401214   -0.937647   -1.550045
H      0.911115    0.675014   -0.495920
H      1.425106    0.072567    1.139733
H      0.587911   -2.170711    0.536740
H      0.096091   -1.630833   -1.072170
H     -1.813027   -1.860176    0.436687
H     -1.079605    0.981844   -0.430870
H     -4.115381    0.228348   -2.643722
