49

C     -5.513706   -2.321083   -2.103000
C      4.839521   -1.874900    1.828485
C     -3.588218    0.985880    1.190973
C      3.790431    1.213997   -2.020251
C     -4.942714    1.309411    1.048192
C      5.157242    1.142139   -1.925874
C     -1.598072   -0.412909    0.642997
C     -3.843971   -0.789855   -0.343247
C      3.616430   -0.263587   -0.181746
C      1.076953    0.661468    1.077057
C     -3.029316   -0.063930    0.497982
C      2.986759    0.495650   -1.128678
C     -0.737957    0.328314   -0.366047
C      0.717419   -0.030282   -0.214771
C     -5.709453    0.560470    0.202522
C      5.765183    0.371910   -0.964652
C     -5.189812   -0.490509   -0.503262
C      4.986761   -0.338929   -0.082697
C      1.516647    0.611625   -1.300430
C     -0.691745    1.745268    0.086350
O     -7.071981    0.834781    0.016938
O      7.154688    0.314307   -0.887596
O      1.118895    0.348031   -2.583698
O     -1.186506    2.736119   -0.467689
O     -5.987436   -1.231423   -1.351650
O      5.568126   -1.126835    0.900386
O      0.049322    1.639513    1.282040
H     -4.984944   -1.895615   -2.992546
H     -6.403222   -2.921265   -2.421967
H     -4.858745   -2.937187   -1.476133
H      5.469043   -2.642607    2.317686
H      4.043835   -2.419777    1.251900
H      4.349640   -1.232100    2.599886
H     -3.000992    1.586542    1.860878
H      3.318304    1.832811   -2.792463
H     -5.349496    2.140047    1.607193
H      5.766354    1.712189   -2.633469
H     -1.427809   -1.517330    0.549596
H     -1.313200   -0.156325    1.683856
H     -3.413616   -1.619973   -0.894710
H      2.985679   -0.839764    0.517462
H      2.021771    1.247927    0.978177
H      1.168737   -0.024748    1.929633
H     -1.109464    0.221056   -1.389611
H      0.872328   -1.130601   -0.154205
H      1.324998    1.733747   -1.155871
H     -7.470177    1.607549    0.531042
H      7.579542   -0.246537   -0.187758
H      1.177944    1.147323   -3.184838
