49

C      5.529578    1.513498   -0.747804
C     -4.746047   -2.704103   -2.471013
C      3.043618   -1.320115    2.598275
C     -2.987630    1.919834   -1.408286
C      4.314396   -1.097723    3.120670
C     -4.284448    2.079357   -1.878096
C      1.294363   -1.017204    0.803488
C      3.607645   -0.051111    0.697543
C     -3.132736   -0.446542   -1.670547
C     -1.765966    0.879756    1.551667
C      2.645132   -0.810656    1.380114
C     -2.414505    0.670737   -1.304433
C      0.428222    0.152636    1.162094
C     -0.977494    0.003421    0.603719
C      5.235731   -0.345464    2.421741
C     -5.015753    0.972513   -2.248447
C      4.863242    0.173093    1.204651
C     -4.437814   -0.286352   -2.143516
C     -1.024586    0.575849   -0.795975
C      0.206081    0.373879    2.587529
O      6.510172   -0.129355    2.957684
O     -6.331757    1.109723   -2.727407
O     -0.343727   -0.306864   -1.639261
O      1.064327    0.414556    3.494146
O      5.779879    0.927426    0.498912
O     -5.174547   -1.377816   -2.514661
O     -1.173074    0.543473    2.800818
H      4.485802    1.939567   -0.799108
H      6.259324    2.309226   -0.934060
H      5.570256    0.690674   -1.515140
H     -3.976634   -2.850594   -3.266001
H     -4.306190   -2.996288   -1.478630
H     -5.592244   -3.419588   -2.624168
H      2.341694   -1.927335    3.165219
H     -2.461554    2.825917   -1.132558
H      4.597382   -1.513157    4.084553
H     -4.762248    3.046102   -1.971441
H      0.902756   -1.969852    1.204530
H      1.373125   -1.127743   -0.279484
H      3.274046    0.345468   -0.268445
H     -2.714003   -1.453906   -1.601857
H     -2.843210    0.690403    1.528216
H     -1.489015    1.931644    1.325795
H      0.834737    1.070186    0.667340
H     -1.318630   -1.056119    0.629587
H     -0.546935    1.560798   -0.769367
H      7.205406    0.416058    2.466493
H     -6.841442    0.280866   -2.990835
H     -0.704726   -1.208769   -1.463132
