39

C     -1.864107    2.033445   -3.229617
C      5.560696    1.536995    0.503044
C      4.595190    1.391747    1.489896
C      5.247224    1.193892   -0.793341
C      3.339886    0.911800    1.182684
C      4.001979    0.721964   -1.075001
C     -3.133986   -2.477132    1.298906
C     -3.482836   -1.336071    0.330857
C     -0.866429   -1.954728    0.599677
C      3.034854    0.571421   -0.113981
C     -1.774511   -1.923131    1.765865
C     -2.783657   -0.180717    0.978300
C     -0.555978   -0.621626   -0.016938
C     -1.662084    0.391489    0.161380
C      1.725511    0.061278   -0.488237
C     -2.164260    0.941599   -1.104431
O      1.495313   -0.237542   -1.694675
O     -3.414777    0.880398   -1.354308
O     -1.325351    1.527426   -2.041695
O     -2.182534   -0.659388    2.154924
O      0.694351   -0.123295    0.401413
H     -1.824634    1.294430   -4.066487
H     -2.922920    2.282239   -3.070356
H     -1.259567    2.904262   -3.576621
H      6.548584    1.920005    0.773127
H      4.874978    1.669902    2.493077
H      5.994457    1.303646   -1.572735
H      2.605030    0.812287    1.991768
H      3.774056    0.454033   -2.119396
H     -3.871231   -2.452569    2.101982
H     -3.027203   -3.429572    0.774651
H     -4.578205   -1.211945    0.267092
H     -3.016636   -1.626383   -0.632693
H     -1.216334   -2.702402   -0.156724
H      0.124287   -2.371315    0.951761
H     -1.435994   -2.535400    2.636239
H     -3.534173    0.594378    1.233659
H     -0.480063   -0.795818   -1.109712
H     -1.238925    1.240396    0.745271
