47

C     -2.981683   -3.540146   -0.477867
C     -2.715047    1.585894    0.003610
C     -1.105372    1.746695    1.727244
C     -3.281135    2.782622    0.385273
C     -1.662163    2.947391    2.120396
C      3.327248   -0.095672   -2.023594
C      4.548996    0.505919   -1.864163
C     -1.524276   -1.329910    1.188123
C     -2.967071   -1.533981    0.810993
C      2.942288    0.059652    0.298477
C     -2.229557   -1.502437   -1.505820
C      0.201860   -1.498054   -1.447249
C      5.899847    1.963167    1.185388
C     -1.630903    1.027097    0.639272
C     -1.056064   -0.668614   -1.115775
C     -2.748831    3.477567    1.460443
C      2.453365   -0.351094   -0.933851
C     -0.993154   -0.252705    0.289167
C      4.971096    0.888982   -0.606724
C      4.165039    0.665619    0.482377
F     -3.290531    4.647893    1.844516
N     -2.991837   -2.092472   -0.490639
O      1.317074   -0.929952   -1.193012
O      6.116803    1.500344   -0.131613
O      4.834216    1.148474    1.622454
H     -2.011067   -3.947492   -0.119069
H     -3.142028   -3.916811   -1.487329
H     -3.778870   -3.865599    0.211441
H     -3.134630    1.063923   -0.838406
H     -0.264491    1.396861    2.285867
H     -4.118985    3.187414   -0.127096
H     -1.245903    3.496312    2.964526
H      3.028988   -0.380153   -3.005890
H      5.224997    0.705090   -2.691715
H     -0.933374   -2.258903    0.963536
H     -1.377228   -1.122797    2.262161
H     -3.467580   -2.262955    1.504259
H     -3.520172   -0.572674    0.810433
H      2.318243   -0.120471    1.159429
H     -1.894772   -2.328604   -2.203586
H     -2.899994   -0.893915   -2.164357
H      0.081515   -1.731922   -2.577095
H      0.007354   -2.527127   -0.982739
H      5.602641    3.026903    1.147037
H      6.806623    1.810126    1.806369
H     -0.978550    0.221866   -1.773560
H      0.097074   -0.131350    0.588360
