50

C     -0.977404   -2.524246   -0.541205
C     -4.944518   -0.846372   -2.505051
C     -0.497767   -1.252523   -1.103575
C      5.649706   -0.086841   -0.439860
C      5.380010   -1.198643    0.332670
C      4.652123    0.857959   -0.563155
C      4.166149   -1.364265    0.957879
C      2.012820    2.762769   -0.539211
C      0.590008    3.194598   -0.487570
C     -1.051802    0.615305    1.620089
C     -0.363089    1.142484   -1.299645
C     -3.062553   -1.304859    1.911532
C     -0.934101   -0.104559   -0.639772
C      3.422266    0.692775    0.068749
C      2.280147    1.456703    0.114872
C     -1.883368    0.161954    0.426989
C     -2.948878   -0.742843    0.727891
C      3.161759   -0.428211    0.842699
C      0.045911    1.492009    1.065266
C      1.337886    0.815267    0.902487
C     -3.967314   -1.065788   -0.257636
N      1.903084   -0.324843    1.328831
N     -0.288307    2.093394   -0.200283
O     -4.070454   -2.189462    2.267121
O     -4.933094   -1.844778   -0.029534
O     -3.939684   -0.518515   -1.555333
H     -0.230204   -3.335638   -0.832202
H     -1.917762   -2.909039   -0.955844
H     -0.911291   -2.560694    0.576440
H     -5.246000   -1.900483   -2.455617
H     -4.537230   -0.647989   -3.520834
H     -5.769345   -0.131312   -2.353493
H      0.239475   -1.282259   -1.928181
H      6.575700    0.082665   -0.942249
H      6.130948   -1.941242    0.443976
H      4.799411    1.765887   -1.162307
H      3.987909   -2.244680    1.554267
H      2.316340    2.670772   -1.608547
H      2.650083    3.566458   -0.109447
H      0.279844    3.626610   -1.453919
H      0.389513    3.979041    0.289332
H     -0.535873   -0.258314    2.103044
H     -1.631621    1.156026    2.367827
H      0.655608    0.959456   -1.663226
H     -1.042576    1.547966   -2.049336
H     -2.321171   -1.061922    2.658815
H     -2.409256    1.149486    0.137857
H      0.208201    2.344006    1.770590
H      1.459205   -1.039397    1.942927
H     -3.879442   -3.023874    2.824488
