39

C     -0.521105   -1.386542    2.477441
C      3.498875    1.084982   -0.257957
C      3.300470   -1.390084   -0.621659
C     -3.084838   -0.610387   -1.506485
C     -2.677270    0.903359    1.308849
C     -2.849820    1.466899   -0.100421
C      1.509992    0.199788   -1.343745
C     -0.906656    0.559596   -1.334934
C      1.864959   -0.206261    1.012086
C     -0.677028   -0.560265    1.245192
C      0.318951    0.723201   -0.528948
C      0.407526   -0.092457    0.680081
C     -2.038496   -0.321689    0.740612
C      2.570465   -0.110307   -0.313529
C     -2.142546    0.209519   -0.620542
H      0.390673   -1.089757    3.011324
H     -0.497970   -2.448015    2.158248
H     -1.404715   -1.211784    3.120613
H      3.586814    1.539286   -1.266699
H      2.971567    1.858047    0.366138
H      4.452263    0.871084    0.221696
H      4.362130   -1.246251   -0.864496
H      2.833824   -1.839692   -1.538235
H      3.207910   -2.153841    0.171973
H     -4.061895   -0.764864   -1.031694
H     -3.225497   -0.108247   -2.466887
H     -2.602742   -1.608951   -1.621235
H     -3.654804    0.691741    1.805040
H     -2.063555    1.532025    1.964166
H     -2.248866    2.392838   -0.229133
H     -3.898393    1.531385   -0.424431
H      1.168030   -0.724781   -1.848450
H      1.856242    0.979576   -2.073849
H     -1.083873    1.527772   -1.891332
H     -0.733376   -0.187532   -2.164340
H      2.069660   -1.179704    1.502416
H      2.114426    0.613563    1.689932
H      0.559742    1.796144   -0.332581
H     -2.671072   -1.239392    0.905774
