33

C      3.711013    0.316878   -0.079286
C     -2.773651    0.454448   -0.988759
C     -1.870646    0.998975    1.209108
C      1.540961    0.404023   -1.332919
C      0.104937    0.844857   -1.006785
C      1.578839   -0.456776    0.988438
C      2.215087    0.487901    0.044529
C     -0.535786   -0.389096   -0.399227
C      0.330018   -1.113217    0.550586
C     -1.902309   -0.052261    0.134532
N     -2.494550   -1.280835    0.624681
O      0.664133   -2.406982    0.078914
H      4.034310    0.977823   -0.931595
H      4.027438   -0.723223   -0.213748
H      4.172240    0.744110    0.832031
H     -3.834600    0.151504   -0.765868
H     -2.502892    0.009341   -1.969702
H     -2.715119    1.561725   -1.050755
H     -1.613424    1.976879    0.800471
H     -2.910269    1.066750    1.618356
H     -1.212927    0.726251    2.056876
H      1.524569   -0.670298   -1.636641
H      2.013403    1.056404   -2.066075
H     -0.406917    1.129886   -1.925708
H      0.102432    1.631513   -0.247442
H      1.414126    0.081345    1.967551
H      2.353918   -1.238309    1.249876
H      2.049590    1.544341    0.374193
H     -0.726890   -1.067058   -1.285564
H     -0.286712   -1.326248    1.475375
H     -2.320572   -1.313028    1.654433
H     -3.519520   -1.306606    0.392829
H     -0.210230   -2.821017   -0.152706
