34

C      4.991712    1.810694    0.246573
C     -5.356790   -0.024780   -0.508457
C     -4.456421    0.593622   -1.364276
C     -4.934395   -0.594964    0.667371
C     -3.105827    0.623602   -1.002236
C     -3.589742   -0.543451    0.988095
C     -1.245093    0.101416    0.529785
C     -0.470785   -1.089395    0.015763
C      3.732900   -0.716253   -0.127160
C     -2.665460    0.058792    0.169290
C      0.980567   -0.914128    0.461310
C      3.027479    0.381293   -0.138059
C      3.079717   -2.006641   -0.074019
C      1.561423    0.354857   -0.098025
O      3.719214   -3.085397   -0.062336
O      1.001513    0.600723   -1.367575
O      3.662043    1.609506   -0.188444
O      1.697578   -2.054213   -0.034563
H      5.707037    1.182411   -0.323459
H      5.255627    2.874556    0.080793
H      5.132047    1.554552    1.314603
H     -6.396246   -0.027240   -0.824888
H     -4.788114    1.039181   -2.283618
H     -5.649450   -1.067899    1.313699
H     -2.440712    1.114469   -1.696866
H     -3.229812   -0.981957    1.903198
H     -1.079680    0.160648    1.642764
H     -0.772961    1.028163    0.092668
H     -0.519067   -1.134924   -1.085874
H     -0.893694   -2.026540    0.426153
H      4.836206   -0.700470   -0.157603
H      1.056577   -0.917455    1.554751
H      1.208510    1.218082    0.538195
H      0.944097    1.579140   -1.539479
