34

C     -5.502450   -0.776218   -0.750479
C      5.526188   -0.079560    0.240036
C      4.726969    0.375273    1.278695
C      4.936331   -0.252615   -0.995398
C      3.400774    0.632252    1.043429
C      3.588868    0.012184   -1.219875
C      1.353007    0.769418   -0.341688
C      0.485639   -0.456152   -0.060125
C     -3.498822    0.750033    0.700091
C      2.794107    0.464874   -0.185465
C     -0.949492    0.033189   -0.265323
C     -3.301288   -0.478768    0.263191
C     -2.359526    1.621593    0.902565
C     -1.958294   -1.024352   -0.035984
O     -2.514062    2.788622    1.314891
O     -1.604623   -1.939341    0.951059
O     -4.454881   -1.282011    0.085070
O     -1.096217    1.136719    0.630470
H     -5.878602    0.180696   -0.333687
H     -5.102151   -0.541812   -1.757244
H     -6.330931   -1.482691   -0.745237
H      6.573357   -0.284944    0.415986
H      5.203200    0.508764    2.251625
H      5.533615   -0.606935   -1.828290
H      2.774513    0.989576    1.860947
H      3.120599   -0.119168   -2.176903
H      1.148405    1.115460   -1.356698
H      1.119903    1.588576    0.369539
H      0.758412   -1.227081   -0.814017
H      0.637244   -0.819695    0.975294
H     -4.524467    1.079587    0.898950
H     -1.009582    0.417659   -1.287833
H     -2.060120   -1.626598   -0.982337
H     -1.535625   -1.466535    1.805046
