78

C      7.366269   -1.684943   -1.079712
C      0.980098    3.898623    1.838728
C     -5.460495   -1.200697   -0.854888
C     -1.687385    0.581448   -2.651691
C     -2.294827    4.317054    0.298600
C     -1.400600    2.278520    1.276885
C      6.007620   -1.020337   -0.973601
C      5.459478   -1.081781    0.416981
C      4.116681   -0.402219    0.466987
C      3.084942   -1.017061   -0.432011
C      1.791714    2.117807    0.437409
C      1.918713    1.204258   -0.695024
C     -3.675815    0.361045   -1.379994
C     -3.905400   -2.322607    1.107991
C     -1.871411   -3.755864    1.258463
C      0.104658   -2.978275   -0.070372
C      0.917711    3.085907    0.581556
C     -4.039067   -0.707956   -0.709517
C     -2.315352    0.875270   -1.273312
C     -3.023328   -3.108980    2.016339
C      1.787668   -0.274656   -0.300605
C     -3.103656   -1.406918    0.159428
C      0.364858   -2.107753   -1.236786
C     -0.080375    3.359590   -0.450142
C     -2.226111    2.342583   -1.077670
C     -1.519139    3.050662   -0.003790
C     -1.237309   -2.596507    0.489558
O     -3.809824   -4.071489    2.641649
O      0.232641   -2.642235   -2.366619
O     -0.053131    4.769563   -0.642472
O     -2.810951    3.023978   -1.909580
O     -1.016784   -1.592883    1.442047
O      0.725250   -0.804489   -1.013274
O     -2.174973   -2.221854   -0.454198
H      7.175805   -2.763045   -1.278631
H      7.987012   -1.545582   -0.192839
H      7.855102   -1.300821   -2.006145
H      2.023799    4.326244    1.904138
H      0.896974    3.228153    2.720269
H      0.260662    4.712739    1.875875
H     -6.051654   -0.512772   -1.481048
H     -5.391444   -2.212456   -1.289859
H     -5.919821   -1.200479    0.154151
H     -0.731679    1.083712   -2.791080
H     -1.697140   -0.499795   -2.863729
H     -2.408990    1.050426   -3.375581
H     -2.898812    4.584935   -0.597289
H     -1.595357    5.165652    0.436217
H     -2.943366    4.184841    1.188562
H     -2.257500    1.609880    1.472119
H     -1.403523    3.008434    2.114877
H     -0.488905    1.677499    1.374166
H      6.146224    0.038813   -1.249876
H      5.313416   -1.458608   -1.705103
H      5.439110   -2.115311    0.823444
H      6.144942   -0.455013    1.056530
H      3.738374   -0.559280    1.517243
H      4.304626    0.669784    0.284223
H      3.379346   -0.949658   -1.515209
H      2.908497   -2.057762   -0.159960
H      2.526164    1.951336    1.250059
H      1.303136    1.392371   -1.569879
H      2.982154    1.314599   -1.078288
H     -4.377528    0.880798   -2.024049
H     -4.502565   -3.026639    0.488178
H     -4.551760   -1.651697    1.715350
H     -1.173137   -4.227169    1.946165
H     -2.336416   -4.434943    0.516313
H      0.145375   -4.059157   -0.336258
H      0.842870   -2.852878    0.741545
H     -1.670821    0.405408   -0.542933
H     -2.553962   -2.409860    2.750526
H      1.572280   -0.243469    0.808638
H     -2.626227   -0.674615    0.873606
H      0.114793    2.973060   -1.450749
H     -3.336580   -4.598351    3.314588
H      0.868798    5.113181   -0.559977
H     -0.164641   -1.829310    1.884335
