83

C      1.272513   -4.372529   -0.871929
C      0.023772   -3.648763   -0.437602
C     -0.052852    3.185208   -2.092874
C     -0.976595    3.706254   -1.014297
C      2.465478   -3.455184   -0.968488
C     -1.232858   -4.363217   -0.819882
C      1.280994    3.884397   -1.904640
C     -2.402027    3.304534   -1.209284
C      3.419430   -1.351237    2.366705
C     -4.218015    2.005318    1.690536
C      2.115051   -2.091157   -0.519848
C      4.046786   -1.768942    1.054731
C      2.446122    2.933249   -2.015957
C     -2.318009   -3.321093   -1.125462
C      3.932163    2.810051    0.006546
C     -3.430760   -2.464987    0.930936
C     -2.648170    1.842261   -1.095447
C     -2.742017    2.097923    1.402317
C      3.286670    0.147917    2.451566
C     -4.736313    0.602170    1.686580
C      4.380833    1.724725    0.993799
C     -4.621502   -1.571519    0.788831
C      3.312282   -1.238892   -0.135333
C      2.744220    2.220538   -0.739851
C     -2.367083   -2.240798   -0.096617
C      2.800785    0.144750    0.090933
C     -2.841190   -0.118678    0.403959
C     -2.302168    1.267676    0.241411
N      3.315342    0.820796    1.212821
N     -4.266843   -0.176511    0.579686
O     -0.894282    1.167425    0.301782
O      3.125065    0.896944   -1.061529
O     -2.524275   -0.957691   -0.671897
H      1.463728   -5.166804   -0.097325
H      1.092905   -4.933708   -1.819328
H      0.086770   -3.553287    0.676137
H      0.006667   -2.666426   -0.947714
H     -0.515019    3.501933   -3.068840
H      0.030409    2.097851   -2.115464
H     -0.938259    4.826418   -1.094991
H     -0.544891    3.451947   -0.048216
H      2.761717   -3.427674   -2.042728
H      3.313147   -3.919785   -0.426965
H     -1.126973   -4.988828   -1.740701
H     -1.624589   -4.989233   -0.009252
H      1.403987    4.656070   -2.695045
H      1.345168    4.415075   -0.931586
H     -3.022128    3.852236   -0.495480
H     -2.707851    3.628387   -2.226541
H      2.441721   -1.869480    2.428416
H      4.064439   -1.759879    3.171922
H     -4.832324    2.661762    1.050304
H     -4.355561    2.397298    2.738628
H      1.653516   -1.550025   -1.398091
H      1.438556   -2.055425    0.370561
H      4.176697   -2.848284    1.078844
H      5.084084   -1.327505    1.018181
H      2.215556    2.227861   -2.866056
H      3.334818    3.521167   -2.336894
H     -3.285915   -3.812248   -1.219634
H     -2.054074   -2.915488   -2.130896
H      4.771370    2.930815   -0.724298
H      3.692014    3.751319    0.507160
H     -3.047210   -2.400712    1.976088
H     -3.788079   -3.515906    0.813674
H     -3.727645    1.658149   -1.271532
H     -2.106982    1.260611   -1.867484
H     -2.477623    3.156408    1.344052
H     -2.220296    1.689043    2.312459
H      2.331362    0.341288    3.021085
H      4.092355    0.521782    3.123540
H     -4.503036    0.052852    2.619942
H     -5.854256    0.650674    1.603994
H      4.580723    2.267657    1.953620
H      5.319218    1.258183    0.684995
H     -5.217352   -1.675105    1.742191
H     -5.303853   -1.945501   -0.012202
H      4.022178   -1.293115   -1.005839
H      1.899808    2.207224   -0.025204
H     -1.390038   -2.161795    0.465069
H      1.672867    0.194856    0.139077
H     -2.390896   -0.528056    1.355387
H     -0.653474    0.504468   -0.418947
