21

C     -1.762024    0.244889   -0.177958
C     -1.306267   -1.192281   -0.187169
C     -0.717891    1.126171   -0.880013
C     -0.125988   -1.412975    0.769665
C      0.611195    0.564885   -0.584620
C      0.678120   -0.170164    0.751299
C      1.670743    1.562916   -0.298210
C      2.145520   -0.376877    0.803436
O      1.648356    2.781358   -0.574078
O      2.695122   -1.428617    1.193878
O      2.667338    0.826899    0.335728
H     -2.691102    0.305778   -0.744885
H     -1.906457    0.628334    0.853798
H     -2.169531   -1.803466    0.155210
H     -0.988515   -1.469207   -1.197608
H     -0.862818    2.187564   -0.642421
H     -0.925847    0.983187   -1.980996
H      0.476990   -2.277232    0.473866
H     -0.574468   -1.530725    1.779580
H      1.010041   -0.100520   -1.399280
H      0.427483    0.550081    1.550781
