63

C      5.129186    0.738755   -0.942865
C      5.206620    0.809528    0.513417
C      3.987594    0.734445   -1.584235
C      5.958502    2.031686    1.000652
C     -9.095029   -0.511418    1.479063
C     -9.676506    0.048493    0.358116
C      2.681600    0.798923   -0.938297
C     -7.718223   -0.459942    1.541565
C     -8.930963    0.628789   -0.647817
C      7.361839    2.104627    0.537990
C      1.712415   -2.843965   -1.525492
C      0.364670   -2.863110   -0.833778
C      1.953554   -1.888014    0.566861
C     -4.499099   -0.023731    1.094066
C     -4.129356    1.262269   -1.285019
C      2.488444   -1.719470   -0.859349
C      0.462116   -1.751672    0.155799
C      1.873236   -0.444847   -1.283773
C     -6.960418    0.116463    0.544409
C     -5.606518    0.299295    0.357090
C     -3.226634    0.281165    0.667527
C     -7.535567    0.676055   -0.575558
C     -5.392554    0.949636   -0.842270
C     -3.029858    0.927350   -0.527863
C      8.159673    0.967466    1.042564
C      0.550764   -0.393889   -0.475623
N     -0.552961   -0.148769   -1.333238
O     -2.166499   -0.089447    1.493289
O      9.322924    0.820304    0.549490
O      7.736098    0.063506    2.004026
O     -1.513682    2.092420   -2.340041
O     -0.779982    2.141167    0.005782
O     -6.606133    1.149289   -1.358814
S     -1.401339    1.302010   -1.081418
H      6.057883    0.687632   -1.522507
H      5.808683   -0.088196    0.862114
H      4.272944    0.731971    1.066982
H      3.958709    0.679077   -2.695752
H      5.363812    2.946284    0.795023
H      5.973029    1.960862    2.127816
H     -9.728933   -0.950989    2.232909
H    -10.773259    0.024733    0.277312
H      2.628380    1.062162    0.106808
H      2.118134    1.632937   -1.474394
H     -7.242352   -0.892307    2.409597
H     -9.401102    1.072390   -1.538119
H      7.821690    3.056997    0.892968
H      7.344432    2.110246   -0.578894
H      2.220328   -3.820781   -1.342722
H      1.654758   -2.737446   -2.617731
H     -0.471738   -2.785080   -1.555431
H      0.254514   -3.809928   -0.255101
H      2.152182   -2.881830    0.972649
H      2.256740   -1.076107    1.225661
H     -4.685924   -0.540736    2.045756
H     -3.989105    1.772059   -2.227941
H      3.561120   -1.808243   -0.934433
H     -0.182652   -1.844447    1.024881
H      1.628315   -0.396475   -2.367186
H      0.618042    0.414326    0.269126
H     -1.225493   -0.910462   -1.461648
H     -2.279095   -0.556693    2.362138
H      8.158046   -0.857326    2.067456
