54

C      5.150155    0.117494   -0.552975
C     -0.664103    0.212212    1.808814
C     -3.233315   -0.727879   -1.893890
C      1.857010    1.077573    1.096883
C     -0.659927   -1.662228   -0.734550
C     -2.479011    2.058716    0.437722
C      3.253432    1.281733    0.536602
C     -1.011257    1.997367    0.205520
C      0.670852   -1.470070   -1.440389
C      3.423318   -1.141034    0.728408
C      2.160010   -1.504058    0.550790
C      2.791734   -0.263967   -1.320905
C     -3.346722   -1.264399    0.444142
C     -1.263404   -0.276056   -0.599763
C      0.943685    0.595896   -0.011256
C     -3.305100    1.072409   -0.289607
C      3.726841    0.013238   -0.144260
C     -0.495099    0.560249    0.379435
C     -2.730533   -0.278382   -0.497359
C      1.534643   -0.669774   -0.529800
O     -3.015932   -2.575090    0.252136
O     -4.511184    0.924880    0.437020
H      5.710109    0.623164    0.267247
H      5.255962    0.706718   -1.478065
H      5.641901   -0.866164   -0.691121
H      0.139545    0.766671    2.381725
H     -1.592703    0.586428    2.292202
H     -0.477935   -0.858645    2.039169
H     -2.600421   -0.277683   -2.675054
H     -3.243194   -1.829941   -1.903587
H     -4.298697   -0.393694   -1.961878
H      1.535143    2.000739    1.571645
H      1.978996    0.207383    1.809488
H     -1.342714   -2.300645   -1.335434
H     -0.401057   -2.108386    0.248400
H     -2.793858    3.098327    0.110697
H     -2.724992    2.084878    1.541392
H      3.928648    1.451443    1.400498
H      3.333340    2.145760   -0.129003
H     -0.792216    2.263922   -0.841730
H     -0.506386    2.655460    0.931711
H      0.554430   -0.907571   -2.388562
H      1.154787   -2.442553   -1.614268
H      4.139148   -1.598939    1.398313
H      1.690503   -2.295966    1.127966
H      2.652270    0.682328   -1.847055
H      3.151288   -1.095683   -1.943635
H     -4.476098   -1.219424    0.355543
H     -3.161167   -0.998897    1.502628
H     -1.034958    0.217417   -1.602540
H      1.058307    1.352694   -0.844714
H     -3.648467    1.549569   -1.256193
H     -2.671608   -3.052377    1.028822
H     -4.953994    1.774836    0.595277
