73

C     -1.714510   -1.343459    0.486056
C      2.938645   -0.212606   -1.846706
C      5.242689    2.323947    0.851965
C     -5.119093   -1.285369   -0.768780
C     -6.325633   -0.897024    2.886169
C     -3.422459    1.421939   -1.545279
C     -8.693164    0.814261   -0.705148
C      1.389819    0.272687    0.322695
C      0.195758    0.147450    0.230532
C      2.789554    0.423243    0.445667
C      7.241622    1.035962    0.095744
C      7.490260    0.459021   -1.244797
C      7.694116   -2.035186   -1.257074
C     -2.020225    1.180976    0.555372
C     -1.207697   -0.013184    0.066935
C      3.625471    0.210124   -0.569406
C      5.781556    0.937617    0.558607
C     -5.587190   -0.073058   -0.101476
C     -7.142515   -1.095921    1.632509
C      6.782620   -0.855305   -1.491305
C      8.210644   -2.059745    0.129334
C      5.059393    0.314109   -0.600901
C     -6.944835   -0.101631    0.555568
C     -4.543935    0.650089    0.690260
C     -3.373026    1.232269   -0.040119
O     -8.494126   -0.916193    2.079276
O      7.465744   -1.986163    1.132371
O      9.601035   -2.168413    0.424586
O     -7.911345   -0.296594   -0.481067
O      5.652273   -0.978333   -0.738653
O     -4.355428    2.007552    0.605710
H     -2.069188   -2.013288   -0.319732
H     -0.810052   -1.916214    0.895211
H     -2.403742   -1.313046    1.374855
H      3.700239   -0.370852   -2.667968
H      2.286745    0.571636   -2.222874
H      2.523187   -1.207698   -1.670048
H      6.088009    3.077720    0.854602
H      4.517992    2.691047    0.089099
H      4.838146    2.359530    1.882046
H     -4.074222   -1.230609   -1.061003
H     -5.218081   -2.227752   -0.168092
H     -5.684039   -1.496566   -1.736807
H     -6.168125    0.150292    3.151203
H     -6.899927   -1.476162    3.687117
H     -5.375030   -1.500606    2.808411
H     -2.401708    1.538163   -1.932801
H     -3.999060    0.684856   -2.088246
H     -4.005056    2.396996   -1.730695
H     -9.437544    0.659220   -1.501524
H     -8.046881    1.695844   -0.886389
H     -9.244187    1.055445    0.222190
H      1.209672    0.587648    1.680791
H      0.432544   -0.334010   -1.086780
H      3.335473    0.719914    1.347634
H      7.941689    0.658464    0.883774
H      7.472870    2.116467    0.032868
H      7.305578    1.175068   -2.066354
H      8.587636    0.218715   -1.316055
H      7.038684   -2.949365   -1.367437
H      8.457544   -2.083872   -2.022864
H     -1.439821    2.082354    0.172645
H     -2.005566    1.266717    1.667287
H     -1.475324   -0.007992   -1.096110
H      5.716580    0.299416    1.456858
H     -5.824303    0.650178   -1.014233
H     -6.985857   -2.150573    1.332154
H      6.495138   -0.872277   -2.566899
H      5.411454    0.890147   -1.510991
H     -7.136949    0.907893    0.922203
H     -4.310268    0.262762    1.726566
H     -8.535620    0.077898    2.274406
H      9.885350   -1.549003    1.213336
