54

C      5.177228    0.024314   -0.077774
C     -0.625647   -1.217201    1.336094
C     -3.182570    1.681192   -1.224844
C      1.783016   -1.655043   -0.504270
C     -0.670500    1.695279    0.654466
C     -2.368087   -1.463942   -1.593866
C      3.237939   -1.376575   -0.617392
C     -1.020885   -1.713567   -1.037254
C      0.812251    1.906098    0.475070
C      3.330843   -0.313330    1.560008
C      2.099381    0.166613    1.697995
C      2.910420    0.999332   -0.310266
C     -3.377587    0.907645    1.051462
C     -1.217923    0.636361   -0.254739
C      0.943178   -0.423476   -0.440916
C     -3.297759   -0.696038   -0.745526
C      3.732236   -0.202836    0.156712
C     -0.500179   -0.701095   -0.060943
C     -2.680789    0.593444   -0.251628
C      1.584618    0.639222    0.380286
O     -3.081003    2.175200    1.546727
O     -3.779191   -1.438717    0.354834
H      5.437273    1.035275    0.353222
H      5.364762    0.094836   -1.154444
H      5.804763   -0.695365    0.451679
H      0.339681   -1.638923    1.745416
H     -0.924142   -0.454517    2.080676
H     -1.335461   -2.092248    1.420043
H     -2.688306    1.545562   -2.200602
H     -2.937122    2.691668   -0.841014
H     -4.262776    1.532437   -1.382740
H      1.645725   -2.349756    0.364547
H      1.547053   -2.309403   -1.396927
H     -0.849249    1.548447    1.713659
H     -1.145050    2.656653    0.355589
H     -2.319348   -0.959163   -2.600861
H     -2.849367   -2.459810   -1.822565
H      3.827488   -2.274630   -0.289072
H      3.513636   -1.216336   -1.693235
H     -1.004276   -2.712854   -0.552308
H     -0.343368   -1.822988   -1.936195
H      0.998467    2.532723   -0.432340
H      1.194649    2.490805    1.339138
H      3.945907   -0.722243    2.352115
H      1.592622    0.184902    2.664428
H      3.318893    1.947017    0.076685
H      2.740268    0.985362   -1.395755
H     -3.227952    0.147325    1.830124
H     -4.495507    0.924655    0.878282
H     -0.885564    0.945403   -1.296200
H      0.890007   -0.021020   -1.496201
H     -4.221188   -0.487332   -1.351982
H     -3.864241    2.619620    1.955033
H     -4.617268   -1.888986    0.167567
