50

C      2.479880   -1.832915   -0.940277
C      5.200661    3.682065   -0.129745
C     -3.062253    1.079023    1.957393
C     -2.106823    2.780667    0.505753
C     -4.218208    1.721536   -0.089695
C     -3.202831   -1.224011   -0.777211
C     -1.331516    0.849682   -2.019304
C     -0.143023   -2.793908    0.583693
C      0.506793   -3.988127   -0.053830
C      1.834943   -0.007623    0.464505
C      4.275371   -0.249151    0.822771
C      1.471819   -1.097494   -0.184737
C      4.563512    2.313133    0.169114
C      3.216355    0.539601    0.493225
C      0.046603   -1.485805   -0.099249
C     -2.850948    1.469483    0.510836
N      3.516750    1.793742    0.191191
O      0.170923   -5.159566    0.700145
O     -0.714098   -0.494699    0.552825
S      5.676558    0.935982    0.661393
Si    -1.948688    0.129031   -0.425007
H      3.183611   -2.430283   -0.379675
H      3.130842   -1.069709   -1.486542
H      2.065556   -2.448751   -1.770423
H      4.622330    4.023639   -1.016989
H      6.253418    3.507242   -0.382369
H      5.057645    4.357514    0.750898
H     -2.281856    0.357369    2.238719
H     -3.024071    1.982089    2.617047
H     -4.056166    0.612693    2.107166
H     -1.861834    3.115687   -0.503490
H     -2.799105    3.540411    0.965510
H     -1.185649    2.654022    1.088545
H     -4.624258    2.658474    0.346282
H     -4.922709    0.906628    0.117071
H     -4.081993    1.899386   -1.159539
H     -2.963836   -1.689389   -1.755387
H     -4.227012   -0.794743   -0.835591
H     -3.237668   -1.994707   -0.007050
H     -1.816266    0.315875   -2.884686
H     -1.619807    1.904391   -2.138309
H     -0.233282    0.729503   -2.101817
H      0.236985   -2.751836    1.639408
H     -1.240656   -3.039808    0.717135
H      0.185963   -4.111320   -1.097751
H      1.621928   -3.975778   -0.001074
H      1.078546    0.530725    1.017639
H      4.427042   -1.255560    1.121493
H     -0.328940   -1.545702   -1.156651
H     -0.740535   -4.948707    1.056640
