50

C      8.951342   -0.345795    0.628668
C     -7.223240   -3.030702    0.578929
C      6.783355   -1.044618   -0.427346
C      6.691771    0.200193    1.564619
C     -6.948385   -0.718898   -0.369791
C     -5.352710   -1.483611    1.172367
C      5.402082   -1.096593   -0.471662
C      5.312978    0.151221    1.525034
C     -6.274286    0.480899   -0.475102
C     -4.669620   -0.287207    1.075289
C      0.968396    0.699588   -0.632449
C     -1.822311    2.007176   -0.589652
C      7.460837   -0.398019    0.587013
C     -6.502442   -1.732324    0.458624
C      4.641161   -0.496144    0.509294
C     -5.123910    0.716299    0.245727
C      0.543797    1.920047   -1.401031
C     -0.909962    1.899330   -1.786855
O      0.813931    3.077138   -0.697894
O     -1.256040    0.762985   -2.498180
O      2.423880   -1.858608   -0.172873
O      2.294179   -0.530482    1.839827
O     -3.618255    2.627244    1.408567
O     -5.281288    3.279255   -0.281216
O      2.320569    0.758119   -0.391004
O     -3.135635    2.094674   -1.106178
S      2.886344   -0.557990    0.459686
S     -4.267071    2.220672    0.122198
H      9.325549   -0.254837    1.671551
H      9.354305    0.521634    0.070892
H      9.401325   -1.307607    0.244110
H     -7.855789   -3.152890   -0.338905
H     -6.477705   -3.861884    0.641556
H     -7.866260   -3.037743    1.491134
H      7.409834   -1.515334   -1.197203
H      7.192359    0.716042    2.374977
H     -7.855944   -0.870118   -0.955616
H     -4.984023   -2.270903    1.832139
H      4.893724   -1.615887   -1.287320
H      4.722575    0.631837    2.309696
H     -6.685158    1.244896   -1.154022
H     -3.754473   -0.139802    1.668536
H      0.716643   -0.208840   -1.214006
H      0.419880    0.731115    0.343950
H     -1.792126    1.117347    0.043582
H     -1.601991    2.886433    0.039801
H      1.121060    2.000377   -2.368129
H     -1.082656    2.781103   -2.443850
H      0.733352    2.937878    0.285760
H     -0.443947    0.356228   -2.933244
