50

C      2.193775   -1.602720    0.454855
C      6.924382   -0.310872    0.213860
C     -4.809215    0.094063   -0.389535
C     -3.934564   -0.807415   -2.460830
C     -3.612358   -2.095142   -0.376380
C     -2.313150    1.507843    0.588611
C     -1.316942    0.716138   -2.229293
C     -0.086187   -0.799032    2.328571
C      0.755697    0.107411    3.236187
C      1.980836    0.739457   -0.071137
C      3.665195    1.356173   -1.768709
C      1.410679   -0.341734    0.408537
C      5.559571    0.193497   -0.272167
C      3.397894    0.736082   -0.568268
C      0.004324   -0.323388    0.902969
C     -3.648533   -0.720952   -0.957947
N      4.432817    0.214205    0.044204
O      0.301413    1.411532    3.181942
O     -0.876895   -0.986614    0.083473
S      5.500816    1.103940   -1.893790
Si    -2.013402    0.114045   -0.623412
H      3.046226   -1.565580    1.163632
H      2.649070   -1.800867   -0.551327
H      1.539428   -2.482778    0.629838
H      6.715522   -1.012680    1.041410
H      7.443334   -0.806940   -0.618145
H      7.447059    0.591561    0.583134
H     -5.745376   -0.364616   -0.763318
H     -4.803229    0.043545    0.718929
H     -4.774812    1.121107   -0.769981
H     -3.136901   -1.354350   -2.987564
H     -4.038267    0.245791   -2.813147
H     -4.919137   -1.283316   -2.552465
H     -4.076584   -2.056966    0.637234
H     -2.595848   -2.505222   -0.230848
H     -4.180561   -2.800792   -1.024707
H     -2.372386    1.048367    1.598917
H     -1.557848    2.304192    0.535206
H     -3.297822    1.996063    0.379487
H     -0.906903   -0.180613   -2.777215
H     -0.484913    1.413108   -2.142116
H     -2.117211    1.110260   -2.896946
H     -1.128998   -0.691684    2.683861
H      0.195638   -1.841038    2.493650
H      0.809481   -0.235179    4.262763
H      1.800315    0.052394    2.829761
H      1.442316    1.671511   -0.122335
H      3.093612    1.866974   -2.506813
H     -0.285006    0.766203    0.938504
H      0.723646    1.916798    2.428856
