39

C      3.749116    0.361144    1.167622
C     -2.918397    2.088539    0.201767
C      3.689488   -0.760744    0.137294
C     -2.448541   -1.571804    0.900424
C      2.936422   -0.330008   -1.097363
C     -3.093111   -0.203797    0.974341
C     -1.033799   -1.372314    1.391332
C      0.735158    0.494177   -1.960167
C     -0.726648    0.200406   -1.722369
C     -2.478683    0.645050   -0.098715
C      1.519579    0.058261   -0.754372
C     -1.020272    0.543839   -0.251927
C     -0.276543   -0.339131    0.664596
N      0.795711   -1.001964   -0.102270
H      3.462406    1.327418    0.723772
H      4.762589    0.389838    1.606512
H      3.059713    0.116666    2.012092
H     -3.908229    2.082179    0.719020
H     -2.154526    2.504459    0.868436
H     -2.924950    2.676805   -0.726867
H      3.176082   -1.629832    0.582471
H      4.727403   -1.035695   -0.139318
H     -2.948382   -2.238255    1.645934
H     -2.445914   -2.004569   -0.095092
H      2.939237   -1.191109   -1.792557
H      3.427745    0.522862   -1.602181
H     -4.182926   -0.275310    0.774977
H     -2.964852    0.196821    1.985293
H     -1.132442   -1.115909    2.487459
H     -0.515217   -2.352182    1.361968
H      1.091690    0.054864   -2.899652
H      0.811979    1.605675   -2.088216
H     -1.027693   -0.812336   -1.969519
H     -1.326162    0.913217   -2.325261
H     -3.037709    0.392123   -1.049151
H      1.576706    0.906321   -0.039736
H     -0.583636    1.584750   -0.153929
H      0.299711    0.258600    1.434903
H      0.387896   -1.689056   -0.771551
