46

C      4.978204    1.598972    0.079538
C     -2.455262    2.926728   -0.774324
C      4.181764    0.802879   -0.905691
C     -1.413371    2.128211    0.003497
C      3.395094   -0.322166   -0.250775
C      2.435559    0.239722    0.757656
C     -3.255808   -1.649003   -0.609930
C      1.645991   -0.862416    1.420122
C     -3.523148   -0.961970    0.719424
C     -1.931691   -2.362976   -0.617541
C     -3.219791    0.512542    0.667694
C      0.860539   -1.631640    0.405415
C     -0.847034   -1.638687   -1.327160
C     -1.882774    0.696951    0.017134
C     -0.119191   -0.749909   -0.338544
O     -0.963946   -0.172220    0.587482
H      4.978882    1.129414    1.082346
H      6.033012    1.610772   -0.261404
H      4.619281    2.633676    0.124883
H     -3.263520    3.218642   -0.089113
H     -2.000683    3.782168   -1.296558
H     -2.914999    2.287729   -1.563272
H      4.792596    0.354779   -1.704894
H      3.430594    1.459733   -1.389132
H     -1.253596    2.547306    1.011131
H     -0.475328    2.157850   -0.590066
H      4.032464   -1.074532    0.218020
H      2.832671   -0.807540   -1.087975
H      1.805519    1.009707    0.293563
H      3.012185    0.754975    1.554727
H     -3.424975   -1.000694   -1.473148
H     -4.042732   -2.458604   -0.680702
H      0.945330   -0.464502    2.184823
H      2.346329   -1.519358    1.959342
H     -4.582981   -1.074580    1.030298
H     -2.846656   -1.409178    1.487185
H     -2.026859   -3.394363   -1.067811
H     -1.645554   -2.534404    0.437308
H     -3.234132    0.881397    1.717262
H     -4.022115    0.983270    0.053852
H      0.324985   -2.453507    0.957379
H      1.556178   -2.168862   -0.276571
H     -1.178257   -1.081781   -2.224912
H     -0.100153   -2.378855   -1.684558
H     -2.010743    0.411716   -1.064983
H      0.428119    0.042608   -0.847300
