29

C      4.624088    0.820080    0.090292
C     -0.156995    1.846162   -0.251673
C      0.418643   -0.280046    0.586337
C      1.187835    2.145733   -0.389321
C      1.768071    0.020302    0.448148
C     -1.708931   -0.725408   -1.875713
C     -0.561224    0.623981    0.240241
C      2.183407    1.239498   -0.042575
C     -2.404897   -0.836197   -0.548609
C     -1.986822    0.306217    0.387308
C     -2.254428   -1.611889    1.539047
N     -2.269535   -0.329003    1.672461
O     -1.942260   -1.854650   -2.621142
O     -2.490952   -2.482379    2.597779
O      3.507226    1.598044   -0.203553
O     -1.971439   -1.945803    0.204981
H      4.387018   -0.255230    0.182202
H      5.151886    1.130117    1.016304
H      5.376782    0.875451   -0.744635
H     -0.921758    2.578173   -0.532579
H      0.116843   -1.232063    0.969017
H      1.517476    3.119445   -0.781281
H      2.493240   -0.719214    0.732383
H     -2.209927    0.134260   -2.413438
H     -0.652664   -0.471837   -1.751710
H     -3.492840   -0.806376   -0.616644
H     -2.656235    1.146126    0.195819
H     -2.797697   -1.814827   -3.117663
H     -2.253911   -2.218669    3.564177
