33

C     -2.065246   -0.654120   -1.364008
C     -2.910522   -1.393153    0.894964
C      4.464527   -0.481851   -0.275699
C      3.947411    0.536165   -1.029845
C      3.664931   -1.246043    0.528815
C      2.570931    0.783674   -0.962175
C      2.313848   -0.967875    0.565541
C     -1.446243    1.948204   -0.264985
C     -0.214278    1.283026   -0.827874
C     -1.186796    0.566165    1.731107
C      1.736535    0.052967   -0.178940
C     -2.162851    0.956221    0.611241
C      0.325338    0.309387   -0.112261
C     -0.628912   -0.455476    0.728573
C     -2.020711   -0.464625    0.110461
H     -1.047754   -0.830920   -1.785020
H     -2.620335   -1.617471   -1.560930
H     -2.612761    0.145135   -1.908474
H     -3.028252   -2.369579    0.371386
H     -3.905350   -0.950016    0.995574
H     -2.502861   -1.602929    1.906139
H      5.528441   -0.714725   -0.292981
H      4.562053    1.135911   -1.658632
H      4.084528   -2.060866    1.131292
H      2.168199    1.595723   -1.564826
H      1.716057   -1.576802    1.199031
H     -1.196854    2.843459    0.310649
H     -2.083821    2.230299   -1.133663
H      0.154373    1.637834   -1.780239
H     -1.650942    0.133835    2.615520
H     -0.496124    1.382450    1.973515
H     -3.152809    1.240456    0.960012
H     -0.303751   -1.394463    1.152344
