55

C      3.641749    1.015020   -2.126102
C     -4.093150    1.355811   -1.230991
C     -0.512158   -2.009029    2.700957
C      3.595999   -1.790427   -2.258360
C     -2.704690    0.844173    1.464939
C      0.183380    0.409022    2.388970
C      3.690926    0.322886   -1.003264
C     -0.455815    2.617382   -1.209231
C     -1.918293    2.392880   -1.468358
C     -0.181099    2.004718    0.174514
C     -1.869284   -1.906471    0.696924
C     -2.422960   -0.929606   -0.262873
C      1.768509   -1.114142   -0.704154
C      1.540805   -0.438419    0.601615
C     -2.639140    1.458643   -0.866800
C     -0.503297   -1.678556    1.197396
C     -0.605738    0.573350    0.084908
C      3.293915   -1.106852   -0.926267
C     -2.116065    0.500648    0.144648
C      0.095645   -0.331366    1.035519
O      3.957948   -1.723548    0.103510
H      3.938464    2.056209   -2.147996
H      3.303640    0.534188   -3.020354
H     -4.755352    1.715754   -0.438845
H     -4.314432    1.991238   -2.130630
H     -4.345570    0.312243   -1.575274
H     -1.489177   -1.694515    3.108971
H     -0.477892   -3.134388    2.813634
H      0.366861   -1.642364    3.224449
H      2.909027   -1.468855   -3.045332
H      3.567014   -2.892284   -2.093542
H      4.648753   -1.544507   -2.524330
H     -3.734913    1.268386    1.267580
H     -2.923892   -0.056275    2.109809
H     -2.180532    1.625009    2.029730
H      0.224841    1.521439    2.195066
H      1.151973    0.196066    2.887429
H     -0.616405    0.136942    3.070681
H      4.032375    0.803920   -0.094198
H     -0.182600    3.675070   -1.249449
H      0.084687    2.051033   -1.995390
H     -2.417757    3.047794   -2.204700
H      0.875765    2.164450    0.371627
H     -0.841548    2.616462    0.857593
H     -2.620288   -1.990115    1.540818
H     -1.954083   -2.925953    0.207350
H     -3.528347   -1.041987   -0.291177
H     -1.965530   -1.110714   -1.264713
H      1.371635   -2.124062   -0.774089
H      1.401726   -0.506205   -1.576927
H      2.065711    0.538263    0.638523
H      2.035527   -1.059428    1.405713
H      0.166978   -2.456871    0.776477
H     -0.364303    0.219865   -0.950592
H      4.820457   -1.291927    0.334589
