24

C     -3.395626    0.645133    0.799027
C      2.863139    1.058635   -0.667167
C     -1.512428    0.385260   -0.378751
C      2.013023   -0.908568    0.203766
C     -0.259524   -0.394767   -0.681381
C      0.667625   -0.329826    0.491613
O     -0.537511   -1.684062   -1.086325
O      0.074580   -1.006162    1.574926
O     -2.269331   -0.183996    0.628300
O      2.643856   -0.294620   -0.859437
H     -3.037577    1.667162    1.082056
H     -3.951908    0.757426   -0.168882
H     -4.033675    0.294321    1.619375
H      1.934086    1.616934   -0.523792
H      3.568527    1.170404    0.182267
H      3.345727    1.434665   -1.606275
H     -1.232230    1.404934   -0.057396
H     -2.145413    0.493533   -1.279759
H      2.632099   -0.854645    1.123402
H      1.882495   -1.985848   -0.074142
H      0.247141    0.114596   -1.533242
H      0.726201    0.739483    0.815259
H     -0.740881   -2.263263   -0.322122
H      0.517605   -1.876729    1.634324
