23

C      0.166787    1.519701   -0.180943
C      1.190145    0.849332    0.739433
C     -1.187627    0.999550    0.306931
C      1.189728   -0.616145    0.461322
C     -1.270040   -0.459446   -0.026905
C      0.035369   -1.092315   -0.357161
O      2.421876    1.449291    0.681514
O     -2.153821    1.769834   -0.312558
O      2.370515   -0.931769   -0.235631
O     -1.954690   -1.130675    0.995252
O     -0.097763   -2.478415   -0.113127
H      0.243089    2.613727   -0.097004
H      0.293904    1.182500   -1.235968
H      0.790494    1.006170    1.774011
H     -1.172774    1.104282    1.404853
H      1.248906   -1.180678    1.414686
H     -1.920178   -0.540059   -0.944836
H      0.238046   -0.953099   -1.450627
H      3.006954    0.887067    0.116628
H     -2.351225    1.330131   -1.185498
H      2.250346   -0.820432   -1.218329
H     -2.721795   -1.661898    0.636205
H     -0.616247   -2.846654   -0.867073
