67

C      4.383082   -5.805142   -3.397143
C     -1.734030   -1.322979    1.053987
C     -3.036235   -1.700581    0.552092
C     -1.224463   -0.104076    1.038064
C     -3.098722   -2.679000   -0.558861
C     -1.928702    1.035912    0.495659
C     -2.496158   -2.302426   -1.862888
C     -4.014378    2.946105    2.910163
C     -2.960363    4.016607    3.216640
C      3.735027   -1.060728   -3.069357
C      3.019812   -2.370665   -1.240395
C      2.727775    0.166961    0.252406
C      2.227472    1.177921   -1.819685
C      4.166632   -2.171998   -3.747986
C      3.449901   -3.489628   -1.913908
C      2.303908    1.271507    0.952674
C      1.795537    2.301975   -1.124698
C     -2.166091    1.940510    3.842436
C      3.158936   -1.106573   -1.822206
C      2.702747    0.088743   -1.121027
C     -3.080085    1.761068    2.612965
C     -1.657580    3.331165    3.387965
C      4.020826   -3.422177   -3.155588
C      1.827352    2.363022    0.247133
C     -2.226863    2.163395    1.444825
C     -1.043157   -2.107493   -1.876481
C     -1.060984    2.836345    2.065138
N     -0.345293    3.759783    1.347708
O     -0.251369   -2.380457   -0.956063
O     -0.415591   -1.555954   -3.026786
O      2.158493    4.013326    2.284750
O      1.596701    4.952579    0.152619
O      4.475377   -4.502757   -3.889444
S      1.271577    3.792509    1.099179
H      3.344082   -6.149502   -3.547080
H      5.070050   -6.484833   -3.946414
H      4.603106   -5.792868   -2.313786
H     -1.115329   -2.142293    1.520475
H     -3.675706   -0.823311    0.218009
H     -3.585771   -2.195973    1.420056
H     -0.235840    0.017909    1.458369
H     -2.553946   -3.613248   -0.225048
H     -4.163066   -3.016746   -0.722613
H     -2.823960    0.866589   -0.098144
H     -1.203099    1.509011   -0.263690
H     -2.964120   -1.333367   -2.249309
H     -2.703093   -3.072526   -2.658593
H     -4.562063    3.166749    1.975174
H     -4.643444    2.735963    3.776526
H     -2.970857    4.824151    2.467709
H     -3.248769    4.459260    4.186999
H      3.852860   -0.097410   -3.535799
H      2.566057   -2.405399   -0.256658
H      3.098932   -0.680006    0.831758
H      2.210270    1.109638   -2.899383
H      4.616915   -2.092043   -4.732010
H      3.333147   -4.464195   -1.446898
H      2.336266    1.301943    2.051146
H      1.433361    3.124313   -1.723208
H     -2.765048    2.036184    4.752468
H     -1.365086    1.204344    3.868998
H     -3.564540    0.812425    2.567077
H     -0.948656    3.767812    4.066144
H     -2.857902    2.883116    0.830331
H     -0.372699    2.044288    2.433270
H     -0.930790    4.420989    0.789434
H      0.507645   -1.189288   -2.969201
