56

C      2.661655   -3.972007   -0.017883
C      4.586500   -1.377300   -1.487628
C      3.503123    3.022819    2.954885
C      1.537738   -3.533205    0.878445
C     -4.466691    4.323364   -0.565566
C     -3.527598    3.804480    0.300248
C     -4.896861    3.585604   -1.659005
C     -2.809089   -0.512631   -1.837399
C     -1.938841   -1.650142   -1.416635
C      0.079986   -0.101723    1.296562
C      0.346940   -2.095579   -0.848034
C      3.335387   -0.090832    0.166234
C      0.930235   -2.193308    0.534177
C     -2.716214    0.639187   -0.892575
C      1.342133   -1.009397    1.223485
C      2.404064   -0.111967    1.046302
C     -2.980125    2.555745    0.129018
C     -1.042915   -0.572368    0.444953
C     -4.359496    2.333686   -1.845812
C     -3.423471    1.832647   -0.971296
C     -1.892993    0.654720    0.202463
C      2.446825    0.999563    2.059584
N     -2.072684    1.830277    0.805633
N     -0.731493   -1.096644   -0.831987
O     -4.789031    1.596668   -2.937861
O      1.601366    1.101664    2.976627
O      3.378931   -1.048589   -0.783414
O      3.421827    1.958521    2.023787
H      3.631254   -3.588153    0.358477
H      2.750751   -5.077442   -0.027723
H      2.541574   -3.650118   -1.058971
H      4.983843   -0.507487   -2.038138
H      5.326261   -1.632021   -0.688054
H      4.451026   -2.275638   -2.091887
H      3.241500    2.655385    3.989821
H      4.567678    3.316154    3.007645
H      2.827716    3.830829    2.634242
H      0.786353   -4.383405    0.801196
H      1.817738   -3.588440    1.962932
H     -4.902020    5.303790   -0.438362
H     -3.213333    4.405584    1.143422
H     -5.636583    3.995797   -2.339959
H     -3.869377   -0.869003   -1.807251
H     -2.533951   -0.131115   -2.837333
H     -1.717024   -2.275171   -2.306396
H     -2.458807   -2.224866   -0.610099
H      0.324354    0.941061    1.011752
H     -0.305486   -0.032020    2.335763
H     -0.174753   -3.073623   -1.062709
H      0.990183   -1.795852   -1.654638
H      4.117115    0.685789    0.146643
H     -0.114036   -2.382872    1.082355
H      1.438699   -1.340924    2.333725
H     -1.770205   -1.228772    1.023034
H     -1.556493    2.107720    1.683465
H     -5.473182    1.941563   -3.592180
