45

C     -2.606550    2.387929    1.405727
C     -3.259474    0.052202    1.695162
C     -0.606482   -2.369713   -2.346065
C      4.968263    1.413445    2.914156
C      0.572554   -1.194875    0.148622
C      1.841960   -0.702349   -1.866128
C      1.617989   -0.505215    0.948044
C      2.971465   -1.073693   -0.936421
C     -3.615368    1.167361   -0.518217
C     -1.985052   -0.597450   -1.476529
C     -3.587283    1.319352    0.979070
C     -0.638897   -0.860721   -2.029552
C      0.527886   -0.474950   -1.175899
C      2.824246   -0.435655    0.419677
C     -2.291550    0.784257   -1.096790
C      3.954948    0.202433    1.064877
O     -1.505951    1.733384   -1.217135
O      5.066241    0.217268    0.481205
O      3.839061    0.791512    2.300702
H     -3.090816    3.003500    2.194903
H     -2.299732    3.017081    0.558680
H     -1.703889    1.933796    1.906932
H     -3.666682    0.149878    2.736906
H     -3.783793   -0.817362    1.256352
H     -2.175815   -0.078117    1.822976
H     -0.567690   -2.976586   -1.438083
H     -1.614583   -2.573421   -2.813407
H      0.139283   -2.602461   -3.103412
H      5.800222    0.684289    3.029527
H      5.318340    2.239106    2.267384
H      4.633334    1.776051    3.912575
H      0.954463   -2.218842   -0.053638
H     -0.356745   -1.165754    0.712978
H      1.793328   -1.494322   -2.641242
H      2.181611    0.243943   -2.382833
H      1.438641   -0.072184    1.914563
H      3.948874   -0.802097   -1.384695
H      2.927068   -2.187525   -0.779442
H     -4.027221    2.073615   -1.001562
H     -4.322776    0.342092   -0.783283
H     -2.207683   -1.338118   -0.678269
H     -2.718680   -0.867169   -2.296283
H     -4.626093    1.613133    1.311929
H     -0.532839   -0.343696   -3.003493
H      0.471867    0.606648   -0.960566
