56

C     -2.971562   -3.438789    1.742148
C     -0.437591    3.122816    0.049209
C     -6.064847    0.666865   -0.945672
C     -2.403088   -3.173185    0.376410
C      5.266119    3.267070    0.616518
C      4.166773    2.800940    1.309488
C      5.578750    2.692594   -0.580192
C      2.607216   -0.737780   -1.765007
C      1.474013   -1.711023   -1.491537
C     -0.319533   -0.301966    1.437135
C     -0.795607   -1.842191   -1.046129
C     -2.059018    1.369122   -0.183466
C     -1.414232   -2.098921    0.324645
C      2.765587    0.206269   -0.635873
C     -1.683008   -0.763547    0.973548
C     -2.502982    0.183897    0.260042
C      3.386242    1.783338    0.830686
C      0.764663   -0.736323    0.476963
C      4.804243    1.666693   -1.078304
C      3.704974    1.194492   -0.393697
C      1.898737    0.216763    0.443171
C     -3.931876   -0.016081   -0.028933
N      2.293301    1.161055    1.293538
N      0.351808   -0.999050   -0.860769
O      5.189957    1.136685   -2.304375
O     -4.500829   -1.049378    0.328177
O     -0.796222    1.753740    0.014027
O     -4.715023    0.916663   -0.703156
H     -2.159427   -3.811727    2.430807
H     -3.725790   -4.263203    1.724550
H     -3.388230   -2.548858    2.209669
H     -0.685047    3.642802   -0.911392
H      0.636523    3.245129    0.308739
H     -1.055201    3.619195    0.838730
H     -6.660489    1.161781   -0.145510
H     -6.442778    1.057803   -1.904526
H     -6.221689   -0.430550   -0.906412
H     -1.824525   -4.154939    0.119269
H     -3.197121   -3.163276   -0.397105
H      5.880260    4.076795    1.006125
H      3.958753    3.294270    2.262814
H      6.427601    3.039076   -1.133827
H      2.417234   -0.241549   -2.735113
H      3.530662   -1.387365   -1.772675
H      1.827273   -2.434025   -0.749011
H      1.172758   -2.239208   -2.398882
H     -0.078245   -0.924032    2.375320
H     -0.247355    0.706026    1.833756
H     -0.571196   -2.823141   -1.476176
H     -1.535396   -1.342549   -1.694187
H     -2.719925    2.067810   -0.726756
H     -0.515346   -2.517924    0.918555
H     -2.240216   -1.001840    1.915878
H      1.249636   -1.707637    0.830213
H      1.832554    1.406215    2.206239
H      4.677755    0.404153   -2.720241
