38

C      4.803277   -0.662393   -1.104038
C      4.654104    1.229013    0.636386
C     -5.495749   -0.576530   -0.826130
C      0.076459   -0.037407    1.795791
C     -3.259531   -0.163996   -1.688182
C     -3.661349   -1.341144    0.567684
C     -2.052718    0.197036   -1.303092
C     -2.146806   -1.333382    0.580458
C      2.715613    0.419405   -0.558473
C      0.380578    1.404094   -0.168668
C      4.008231    0.330959   -0.350407
C     -4.179481   -0.682894   -0.666185
C     -0.192709    0.100083    0.330011
C     -1.697838    0.058955    0.128783
C      1.848411    1.354010    0.123174
O      2.290129    2.154110    0.982613
H      5.124888   -1.514649   -0.433668
H      4.151603   -1.163730   -1.868223
H      5.662472   -0.225515   -1.655447
H      5.752151    1.014589    0.730468
H      4.248691    1.097685    1.666848
H      4.530606    2.306536    0.329640
H     -6.133571   -0.966642   -0.060511
H     -5.877764   -0.092539   -1.734223
H      0.507167   -1.054812    2.041549
H     -0.839524    0.046525    2.432419
H      0.797083    0.752821    2.144883
H     -3.574182   -0.087846   -2.709039
H     -4.082637   -0.765839    1.437752
H     -3.968113   -2.413767    0.599915
H     -1.361378    0.581866   -2.047328
H     -1.778593   -2.059760   -0.158064
H     -1.841510   -1.528499    1.624669
H      2.257349   -0.259780   -1.296694
H     -0.114514    2.211689    0.391712
H      0.297168    1.521785   -1.264208
H      0.291779   -0.697721   -0.273457
H     -2.139791    0.847690    0.771816
