39

C     -1.626959    3.278646   -0.415319
C     -1.321600   -3.494062    0.038311
C      2.693976    1.471479    1.773559
C     -2.286063    0.893573   -1.110883
C      0.900988   -2.553953    0.316295
C     -1.498971   -0.374174   -1.357930
C      1.773679   -1.331734    0.166300
C     -0.603699    1.346352    0.584478
C     -1.468440    1.812944   -0.271103
C     -0.437149   -2.322929   -0.334188
C      1.961583    0.973444    0.766394
C     -1.046073   -0.992284   -0.033376
C      1.154310   -0.241480    1.010974
C     -0.310932   -0.092353    0.864360
C      2.055616    1.681946   -0.496246
O      1.424149    1.311867   -1.513614
O      2.846437    2.810221   -0.660994
H     -1.712873    3.598125   -1.471767
H     -0.750233    3.810667    0.016870
H     -2.516655    3.578791    0.174967
H     -0.658438   -4.406980    0.011031
H     -2.167723   -3.633380   -0.641290
H     -1.641133   -3.310913    1.100417
H      3.306004    2.345962    1.682948
H      2.697398    0.990988    2.760423
H     -2.490127    1.367168   -2.089995
H     -3.233198    0.713725   -0.603366
H      1.416359   -3.386753   -0.206360
H      0.799250   -2.829872    1.381234
H     -0.708246   -0.288690   -2.095740
H     -2.238220   -1.116566   -1.782931
H      2.766915   -1.565732    0.601584
H      1.910083   -1.064642   -0.878868
H     -0.021922    2.072824    1.168036
H     -0.254091   -2.436136   -1.443359
H     -2.048538   -1.246065    0.453774
H      1.373007   -0.563022    2.075391
H     -0.793909   -0.230549    1.904088
H      2.755440    3.423548   -1.444105
