45

C     -4.528697   -1.450457   -1.186341
C     -4.498255    0.814052   -0.305800
C     -0.252448    2.855877   -0.003428
C      5.910793   -2.433609   -1.519876
C      0.736893   -0.828366    0.296056
C      1.671224    1.266313    1.264558
C      2.098442   -1.238138   -0.172222
C      3.035574    0.676114    1.098471
C     -3.039608   -0.977482    0.654379
C     -1.587502    1.173704    1.113709
C     -3.596872   -0.378844   -0.585231
C     -0.560389    1.325588    0.072004
C      0.752784    0.682758    0.218424
C      3.118243   -0.515371    0.223628
C     -2.103807   -0.150348    1.429167
C      4.441987   -0.922893   -0.238810
O     -1.722452   -0.680400    2.487970
O      5.433838   -0.253790    0.122094
O      4.632641   -2.011144   -1.052811
H     -5.293320   -0.963554   -1.829259
H     -5.030228   -1.995866   -0.363282
H     -3.971634   -2.153505   -1.822819
H     -4.616074    0.922602    0.790640
H     -5.532574    0.667924   -0.693218
H     -4.143026    1.738495   -0.813342
H     -0.238610    3.233123    1.018321
H      0.677544    3.001405   -0.572245
H     -1.059901    3.367663   -0.559502
H      5.860347   -2.858096   -2.525343
H      6.655709   -1.609711   -1.488070
H      6.282714   -3.216892   -0.795939
H      0.572180   -1.205431    1.331560
H     -0.070793   -1.190486   -0.347280
H      1.665893    2.369470    1.111506
H      1.336651    1.075800    2.292382
H      2.229980   -2.077670   -0.797647
H      3.482504    0.357839    2.078270
H      3.717509    1.450591    0.681862
H     -2.483661   -1.907139    0.334696
H     -3.883235   -1.367316    1.262418
H     -2.430749    1.889621    0.844879
H     -1.170432    1.690706    2.044292
H     -2.880150   -0.175750   -1.388419
H     -0.925549    1.111211   -0.965826
H      1.306516    0.891402   -0.762940
