33

C      4.540201   -1.000727    0.382779
C      4.278986    1.193072   -0.694045
C     -4.423385    0.602897   -1.589026
C     -4.638012    0.396031    0.860634
C      0.123299    0.147173    1.307032
C      3.785277    0.303593    0.416302
C     -3.867662   -0.072982   -0.340453
C     -0.148298   -0.545487    0.003032
C      1.571852    0.431562    1.402295
C     -1.571147   -0.861881   -0.165073
O      0.609719   -1.724122   -0.006766
O      2.095320    1.011051    2.395640
O     -1.945549   -2.033287   -0.289667
O      2.416648    0.064666    0.386204
O     -2.500230    0.160565   -0.184078
H      5.543980   -0.917581   -0.033265
H      4.649214   -1.384675    1.426068
H      3.963514   -1.769800   -0.179797
H      4.169846    2.268723   -0.482643
H      3.812599    0.901985   -1.678003
H      5.363999    0.996202   -0.823332
H     -5.475049    0.865650   -1.362650
H     -4.332596   -0.131984   -2.416211
H     -3.796799    1.479327   -1.794464
H     -5.463025   -0.293641    1.059669
H     -3.944409    0.430132    1.748535
H     -5.038312    1.429379    0.729836
H     -0.095787   -0.607578    2.116353
H     -0.498027    1.050288    1.454749
H      4.026302    0.818250    1.372165
H     -4.027755   -1.176683   -0.438274
H      0.237373    0.064531   -0.848544
H      0.577912   -2.094649    0.931895
