27

C      4.709571   -1.377441   -0.416198
C     -4.278801    0.047437   -0.788126
C     -3.712472    1.285486   -0.701640
C     -3.500032   -1.064822   -0.558878
C     -2.387470    1.420819   -0.391002
C     -2.138168   -0.918220   -0.239961
C      0.663309   -0.729540    0.022978
C     -1.568349    0.320013   -0.152513
C     -0.116486    0.531150    0.180293
C      2.937387    0.178881    0.298789
N      2.054851   -0.660665    0.108488
O      0.299800    1.467195   -0.805894
O      2.680495    1.523469    0.516010
O      4.292991   -0.229959    0.299097
H      4.198733   -2.292825   -0.065903
H      5.805447   -1.457787   -0.263450
H      4.559934   -1.201889   -1.510779
H     -5.323584   -0.097211   -1.031544
H     -4.366546    2.142777   -0.891226
H     -3.960368   -2.032225   -0.630700
H     -1.965192    2.396716   -0.328580
H     -1.564655   -1.803091   -0.071527
H      0.203723   -1.481102    0.721261
H      0.394881   -1.137818   -0.997814
H     -0.105776    0.970033    1.182765
H      0.128778    2.352602   -0.416642
H      2.058000    1.848015    1.251456
