31

C      4.763656   -0.337772    0.465161
C      3.387348    0.028287   -0.067465
C      2.445814   -1.133892    0.080670
C      1.080056   -0.814043   -0.444803
C      0.406654    0.329941    0.238035
C     -1.899209   -0.534713   -0.175645
C     -3.745954    1.068520   -0.023797
C     -3.199924   -0.237642    0.493322
C     -0.969525    0.613000   -0.315059
C     -2.778094    2.106551    0.379741
O     -4.076801   -1.295721    0.282782
O     -3.163247    3.209775    0.779698
O     -1.440815    1.804162    0.295306
H      4.607825   -0.951279    1.356367
H      5.370196   -0.865205   -0.313061
H      5.312083    0.603960    0.677657
H      3.425610    0.297719   -1.145213
H      3.004115    0.917618    0.470339
H      2.809921   -2.043580   -0.435244
H      2.363600   -1.414685    1.158893
H      1.120284   -0.634778   -1.558450
H      0.445598   -1.725465   -0.346125
H      1.063788    1.239390    0.127878
H      0.285942    0.174275    1.324486
H     -2.145600   -0.996351   -1.172093
H     -1.391312   -1.373193    0.381709
H     -3.773195    1.077702   -1.147979
H     -4.769105    1.277830    0.353810
H     -3.052289   -0.129610    1.587205
H     -0.818353    0.860318   -1.401125
H     -4.669068   -1.121117   -0.489713
