23

C     -2.201203    0.469261   -1.017637
C      1.981893   -1.911505   -0.137497
C      0.685500   -1.885562    0.311496
C      2.624071   -0.744138   -0.411287
C     -1.351858   -0.644677    0.985792
C     -2.091124    0.533978    0.470028
C      0.035167   -0.669683    0.484343
C      1.988050    0.507815   -0.245309
C      0.689780    0.517420    0.204636
C     -0.038042    1.760843    0.381671
O      2.680909    1.631537   -0.534583
O      0.464631    2.875659    0.158894
O     -1.362904    1.701546    0.822884
H     -2.788316    1.304644   -1.456893
H     -2.634177   -0.526726   -1.305398
H     -1.165986    0.458327   -1.440346
H      2.509888   -2.839620   -0.280404
H      0.166228   -2.790687    0.531207
H      3.633855   -0.709971   -0.763095
H     -1.896225   -1.570595    0.657634
H     -1.269072   -0.651237    2.110110
H     -3.083276    0.630769    0.957924
H      2.422210    2.552602   -0.484170
