66

C     11.082427   -0.006794    1.727380
C    -10.589208    0.215553   -1.269994
C     -0.052741    1.009670   -1.189466
C     -0.541311   -0.275319   -1.654235
C      1.014946    1.221691   -0.233012
C     -1.154862   -1.297393   -0.809611
C      7.731764    0.424281   -1.282198
C     -6.631860    1.072716    0.532034
C      5.348459    0.509765   -1.022375
C     -5.215406   -0.881606    1.029873
C      8.802801    0.798998   -0.639620
C     -7.801908    1.364475    0.037045
C      4.356153   -0.589312   -0.951429
C     -4.058105   -0.051022    1.445547
C      7.917109   -0.128439    1.426269
C     -8.818854   -0.401922    1.307713
C      8.866497    0.492503    0.782928
C     -8.958078    0.579877    0.451482
C      6.683973   -0.583052    0.778046
C     -7.543018   -0.791019    1.906700
C      2.905091   -0.436606   -0.691321
C     -2.687384   -0.139584    0.881477
C      6.622064   -0.270417   -0.655341
C     -6.393782    0.003539    1.483334
Br    10.263828    1.717278   -1.477041
Br    -8.021830    2.805074   -1.223053
Br     8.157362   -0.459228    3.321219
Br   -10.394661   -1.385335    1.800745
N      2.347575    0.829320   -0.484087
N     -2.370590   -1.052364   -0.127489
N      4.972257   -1.691192   -1.153939
N     -4.447412    0.754068    2.373764
O      5.547384   -0.120823    1.482275
O     -7.301311   -2.170265    1.625862
O      2.155100   -1.424002   -0.651659
O     -1.828243    0.610899    1.321462
O      9.990192    0.868552    1.532502
O    -10.213856    0.864286   -0.055306
O      6.310145   -1.495712   -1.364334
O     -5.772613    0.571165    2.653834
H     10.696281   -0.912283    2.246139
H     11.791890    0.496161    2.408188
H     11.601165   -0.245837    0.786972
H    -10.557828   -0.865051   -1.079442
H    -11.582328    0.591388   -1.559807
H     -9.810833    0.450303   -2.043141
H      0.274257    1.659547   -2.119827
H     -0.950660    1.648724   -0.903114
H      0.257214   -0.725771   -2.335727
H     -1.345931   -0.111205   -2.498441
H      1.041880    2.343310   -0.016170
H      0.767422    0.851674    0.827239
H     -0.399807   -1.804716   -0.102460
H     -1.347206   -2.187794   -1.501846
H      7.711186    0.669087   -2.357594
H     -5.764896    1.691580    0.195360
H      5.156683    1.332145   -0.336925
H      5.454746    0.793787   -2.083475
H     -5.238254   -1.861080    1.521194
H     -5.213492   -1.005721   -0.064754
H      6.632409   -1.711982    0.906109
H     -7.604152   -0.777376    3.038497
H      3.068952    1.641506   -0.526789
H     -3.216211   -1.662126   -0.418381
H      5.598400    0.847174    1.644130
H     -7.298979   -2.207749    0.629752
