51

C      6.765962    0.779810   -0.460172
C      4.977193    1.826426    0.792887
C      5.567232   -0.522784    1.223556
C     -8.056182    0.057184   -1.079178
C     -7.442261    1.255267   -0.768119
C     -7.280954   -1.015875   -1.506114
C     -6.067319    1.402544   -0.875579
C     -5.924567   -0.845831   -1.604032
C      0.288422    0.372665   -1.100131
C     -1.098528    0.409168   -1.198384
C      0.119741   -1.045178    0.764523
C      3.159907    0.372033   -0.908844
C     -2.103010   -1.770355    1.646378
C     -3.852546    0.487599   -1.410153
C     -5.310616    0.351506   -1.293544
C      0.923401   -0.355960   -0.116666
C     -1.259728   -1.017607    0.679349
C      2.378198   -0.461502    0.047686
C     -1.866767   -0.294087   -0.297825
C      5.366000    0.506005    0.159116
N      4.539489    0.141385   -0.922968
O     -1.266599   -2.435535    2.543099
O      2.701489   -0.300886    1.380735
O     -3.245539   -0.272422   -0.377842
H      7.150989   -0.197326   -0.854852
H      6.666019    1.458019   -1.314353
H      7.466394    1.150198    0.311129
H      4.505019    1.681400    1.763176
H      4.417324    2.483924    0.083011
H      5.919616    2.410319    1.007547
H      5.276699   -0.189571    2.248368
H      6.664113   -0.735677    1.317028
H      5.111539   -1.515150    0.975505
H     -9.129634   -0.072942   -0.999755
H     -8.039607    2.105615   -0.431919
H     -7.700246   -1.981448   -1.765125
H     -5.626502    2.375516   -0.617966
H     -5.327043   -1.688436   -1.937749
H      0.883803    0.917248   -1.793543
H     -1.592983    0.978906   -1.967793
H      0.549696   -1.650118    1.576051
H      2.869716    1.438710   -0.691927
H      2.792288    0.234831   -1.973324
H     -2.802539   -2.457694    1.161041
H     -2.705216   -1.071071    2.270088
H     -3.482328    0.118722   -2.396306
H     -3.545848    1.548264   -1.264388
H      2.620487   -1.540916   -0.231185
H      4.917298   -0.578785   -1.541700
H     -1.781460   -2.672843    3.366980
H      1.909991   -0.173265    1.923903
