52

C     -6.185086    1.071651   -1.201160
C     -7.284215   -0.928997   -2.332445
C     -2.287055    0.883774    1.479977
C      7.066392    0.808535   -1.738826
C      2.336824    0.701581    2.715601
C     -3.799388   -0.439795   -0.799984
C      0.091406   -0.484043    1.823721
C     -4.984968   -1.036920   -1.472520
C     -3.443759   -1.215206    0.450765
C     -1.094374   -1.185379    1.220950
C      1.256404   -0.465221    0.889908
C      4.742820    1.379886   -1.203270
C      5.739101   -0.618349   -0.120550
C      3.441640    1.178576   -0.513222
C      4.338475   -0.921482    0.368620
C     -6.090037   -0.345758   -1.661482
C     -2.240899   -0.535664    1.052244
C      5.776674    0.570031   -1.025688
C      2.431203    0.222198    1.489580
C      3.712282    0.392836    0.763385
H     -7.152431    1.523555   -1.459495
H     -5.348653    1.639645   -1.676121
H     -6.004025    1.093775   -0.093869
H     -7.078552   -1.915243   -2.779311
H     -7.705231   -0.199519   -3.064657
H     -8.071109   -1.021262   -1.528734
H     -3.279455    1.346610    1.291920
H     -1.566293    1.441797    0.848890
H     -2.095373    1.003547    2.565433
H      7.054898    0.262762   -2.719898
H      7.946006    0.508195   -1.141076
H      7.211005    1.879580   -1.998437
H      3.162225    1.198084    3.168682
H      1.435641    0.615123    3.311504
H     -4.072745    0.586310   -0.490153
H     -2.968630   -0.471426   -1.529994
H      0.310907   -1.001147    2.778513
H     -0.162994    0.567500    2.075765
H     -4.973887   -2.065042   -1.829039
H     -3.219451   -2.265569    0.261132
H     -4.300278   -1.119880    1.155148
H     -0.980744   -2.221870    0.934505
H      1.581696   -1.527929    0.707408
H      0.966332   -0.054567   -0.082306
H      4.850247    2.223746   -1.879405
H      6.394173   -0.371958    0.747432
H      6.189204   -1.498611   -0.620583
H      3.019859    2.167626   -0.199481
H      2.693566    0.673495   -1.153060
H      3.793392   -1.390503   -0.475423
H      4.425532   -1.622710    1.206598
H      4.421728    0.983637    1.358231
