43

C     -0.565810   -3.095403    0.530446
C      4.135900   -0.861445   -0.106695
C      3.654798    1.532633    0.344930
C     -1.908864   -1.434331   -0.690759
C     -2.718298   -0.821207    0.445786
C      1.374123   -0.345310    0.724578
C     -4.111353    1.689588   -0.396309
C      1.875296    0.069674   -0.639178
C     -4.327956    3.004064   -0.781834
C     -2.405635    2.941597    0.199832
C     -0.499704   -1.745196   -0.192323
C     -2.890637    1.653117    0.226397
C     -0.089086   -0.647509    0.721134
C     -2.166909    0.509637    0.831488
C      3.357209    0.357779   -0.557337
N     -0.792483    0.588504    0.398250
O      3.816373    0.671900   -1.839991
O     -3.292716    3.719545   -0.410689
H     -1.090410   -2.959588    1.477317
H      0.439189   -3.527477    0.677821
H     -1.142685   -3.763889   -0.142699
H      3.709542   -1.788985   -0.510965
H      5.173473   -0.750561   -0.462688
H      4.137200   -0.876290    1.002254
H      2.714724    2.017321    0.689183
H      4.242441    1.178840    1.241413
H      4.259791    2.289270   -0.172613
H     -1.795193   -0.682701   -1.495710
H     -2.399462   -2.322760   -1.101078
H     -2.631189   -1.498019    1.338696
H     -3.779060   -0.791099    0.150701
H      1.540181    0.512720    1.409356
H      1.965687   -1.188588    1.141671
H     -4.769944    0.848124   -0.551197
H      1.729076   -0.685644   -1.414360
H      1.363125    0.993932   -0.921922
H     -5.207715    3.347084   -1.297210
H     -1.473235    3.334934    0.586900
H      0.122034   -1.894814   -1.072561
H     -0.370675   -0.940253    1.761306
H     -2.149308    0.646566    1.948508
H     -0.668665    0.767085   -0.603858
H      3.636829   -0.052844   -2.485990
