27

C     -4.247996   -0.395826    0.404134
C      1.820168    0.174021   -1.658483
C     -2.134920    0.781678   -0.005252
C     -2.078527   -1.577462    0.282078
C     -0.775512    0.841934   -0.181634
C     -0.721498   -1.531705    0.107803
C      2.107841    0.459866    0.749718
C      3.594588    0.311414    0.541196
C     -2.778220   -0.400380    0.222138
C      1.393374   -0.371425   -0.299665
C     -0.059884   -0.343862   -0.122580
Br     4.494908    1.385046    1.896835
H     -4.577799    0.342548    1.168746
H     -4.744306   -0.066574   -0.547527
H     -4.643446   -1.416579    0.607939
H      2.816839   -0.265645   -1.867764
H      1.956572    1.266085   -1.527319
H      1.070250   -0.071054   -2.441584
H     -2.686461    1.702303   -0.051593
H     -2.582639   -2.523388    0.462711
H     -0.274691    1.779129   -0.360765
H     -0.178429   -2.483436    0.159084
H      1.882344    0.070809    1.765699
H      1.831490    1.525689    0.676817
H      3.856515   -0.742551    0.673939
H      3.892662    0.732109   -0.435694
H      1.766776   -1.388769   -0.218978
