36

C     -2.503318    1.516869    0.944665
C     -1.403245    1.770736   -1.226562
C     -3.265596    0.121191   -0.964179
C     -0.756186   -1.570926   -1.533425
C     -1.327807   -1.650282    1.447704
C      3.638015   -0.039833    1.259982
C      2.505900   -0.695093    1.437640
C      2.709149   -0.331242   -0.864385
C      3.777780    0.446706   -0.133145
C      1.716195   -0.748726    0.197814
C     -2.100178    0.776835   -0.295861
O      3.504661    1.810582   -0.149182
O      0.691080    0.184141    0.283149
Si    -0.826799   -0.553471    0.056205
H     -3.210672    0.975960    1.572589
H     -3.018511    2.456261    0.603274
H     -1.637356    1.834946    1.524545
H     -2.035530    2.626765   -1.463432
H     -1.117128    1.259405   -2.162204
H     -0.482645    2.082683   -0.721794
H     -4.172974    0.711378   -0.781931
H     -3.035711   -0.008793   -2.037802
H     -3.425055   -0.901884   -0.551989
H     -0.317101   -0.925136   -2.325084
H     -1.786424   -1.800794   -1.848248
H     -0.106565   -2.441491   -1.430669
H     -0.420035   -2.141437    1.873377
H     -1.812459   -1.107298    2.285955
H     -2.003707   -2.458176    1.099056
H      4.399789    0.138312    2.028696
H      2.198681   -1.142113    2.395749
H      3.154492   -1.235129   -1.325373
H      2.264345    0.335547   -1.619573
H      4.780935    0.215968   -0.494761
H      1.353265   -1.775070    0.001841
H      4.070713    2.262607   -0.836635
