30

C     -3.835827   -0.248910    1.444786
C      4.837296   -0.174514   -0.133529
C      1.536434    2.559821    0.327381
C      0.261003    2.071126    0.182224
C      2.632133    1.734199    0.191546
C     -3.015692   -1.300226   -0.633356
C     -3.594407   -0.045681   -0.037848
C      0.059064    0.740917   -0.102841
C     -1.543080   -1.070214   -0.535666
C      2.444001    0.400271   -0.093829
C      1.149188   -0.089113   -0.239785
C     -0.451213   -2.014514   -0.696457
C      0.903810   -1.500300   -0.543265
C     -1.308952    0.197402   -0.262599
O     -0.658420   -3.242867   -0.960403
O      1.903684   -2.245368   -0.665478
O      3.472137   -0.506163   -0.248839
O     -2.518874    0.865916   -0.163486
H     -4.420893    0.575927    1.883292
H     -4.286509   -1.239512    1.591907
H     -2.837522   -0.269525    1.935570
H      5.016219    0.621269    0.591367
H      5.371684   -1.127333    0.139152
H      5.255456    0.142740   -1.112180
H      1.720348    3.625073    0.556416
H     -0.606633    2.716663    0.288077
H      3.653166    2.111696    0.304844
H     -3.328747   -2.170091   -0.009871
H     -3.321258   -1.432930   -1.689634
H     -4.487596    0.314242   -0.564501
