37

C      2.146411   -1.453363    1.895772
C     -4.930085    1.065531   -0.095104
C     -3.912313    1.258989   -0.987495
C     -4.662925    0.361449    1.055421
C      2.708148    0.754842   -1.615613
C      3.005304    1.403378   -0.310664
C     -2.648175    0.757300   -0.734786
C     -3.400272   -0.135439    1.300127
C      2.148431   -0.619227   -1.499352
C      2.996679    0.463365    0.858303
C     -0.089019   -0.309530   -0.495868
C     -2.353281    0.042666    0.420463
C      1.304080   -0.839861   -0.273489
C     -0.991926   -0.491880    0.681374
N      1.896398   -0.407390    0.937741
O     -1.105232   -1.777645    1.126714
H      3.218141   -1.606491    2.105602
H      1.698300   -2.390966    1.458381
H      1.622035   -1.214299    2.846649
H     -5.933272    1.448971   -0.268726
H     -4.139801    1.815523   -1.888298
H     -5.462505    0.202912    1.768509
H      2.023466    1.412909   -2.226631
H      3.641956    0.678552   -2.247002
H      2.313136    2.260465   -0.157100
H      4.029311    1.853139   -0.360487
H     -1.892240    0.933333   -1.457440
H     -3.182088   -0.689605    2.201501
H      1.469768   -0.784755   -2.381296
H      2.941428   -1.401435   -1.605507
H      3.962551   -0.099844    0.914172
H      2.994919    1.112747    1.780196
H     -0.578698   -0.769862   -1.376895
H     -0.003058    0.774621   -0.713881
H      1.188708   -1.964542   -0.198673
H     -0.590386    0.121234    1.541377
H     -1.433892   -1.765790    2.052032
