40

C     -3.160437    2.140409   -0.301526
C      3.521473    1.178724   -0.367295
C      3.141811    0.007123    1.772590
C     -2.337325   -1.531811    0.263138
C     -3.016271   -0.363203   -0.459982
C     -1.395036   -2.186485   -0.665766
C      1.287274    1.293925    0.761343
C     -2.518306    0.875865    0.205040
C     -0.028541   -1.709773   -0.765007
C      0.099075    0.316990    0.775450
C      0.592812   -1.004451    0.372457
C     -1.037248    0.888833    0.065498
C      1.935102   -0.662143   -0.307670
C      0.285549   -0.818043   -1.898244
C      2.508811    0.453115    0.489515
O     -0.708404    1.557140   -0.898718
O     -0.347707   -0.711910   -2.954740
O      1.426597   -0.129760   -1.539226
H     -4.203845    2.146850    0.067399
H     -3.061547    2.267703   -1.379002
H     -2.650287    2.986551    0.211359
H      2.984357    1.664164   -1.205245
H      4.169838    1.855542    0.188059
H      4.168938    0.376378   -0.819200
H      3.786243   -0.881886    1.628756
H      2.341030   -0.216248    2.520203
H      3.738186    0.876109    2.160934
H     -1.903498   -1.247272    1.215620
H     -3.176738   -2.247931    0.508892
H     -2.667546   -0.318983   -1.533371
H     -4.099336   -0.460273   -0.500966
H     -1.406112   -3.289074   -0.414389
H     -1.866834   -2.161610   -1.694199
H      1.129422    1.913688   -0.163473
H      1.351518    1.901002    1.662817
H     -2.806462    0.798906    1.294395
H      0.642801   -2.613799   -0.949631
H     -0.160336    0.254113    1.878013
H      0.879351   -1.663714    1.221494
H      2.561628   -1.534761   -0.445323
