29

C      2.487755   -1.754414   -0.497072
C      1.775838    1.186010    0.770672
C     -0.674474    0.811070   -1.931063
C     -0.778182    1.668652    0.340317
C      0.277778   -1.419889    0.713387
C     -2.159450   -0.831306    0.547912
C      1.466854   -1.030256   -0.118515
C      1.216210    0.415031   -0.427497
C     -0.821712   -0.807324   -0.105454
C     -0.295745    0.522866   -0.473585
O     -2.229509   -0.164255    1.744774
H      2.592606   -2.794143   -0.229858
H      3.265951   -1.308500   -1.102058
H      1.796162    2.274940    0.583475
H      1.207517    0.898515    1.673607
H      2.823103    0.865452    0.949986
H      0.125923    0.444322   -2.609211
H     -0.890007    1.878310   -2.081195
H     -1.577449    0.210810   -2.166293
H     -0.183246    2.569676    0.043228
H     -1.835638    1.929146    0.043836
H     -0.699665    1.570355    1.415495
H      0.209007   -2.524027    0.764596
H      0.401434   -0.973959    1.705387
H     -2.906423   -0.470520   -0.182611
H     -2.417445   -1.897880    0.745748
H      1.682002    0.726418   -1.362468
H     -0.901684   -1.425987   -1.040377
H     -2.957509   -0.569114    2.284836
