39

C     -2.194742    2.737122   -0.758104
C     -1.562170   -2.452167   -0.253944
C      3.155759   -1.602186   -0.900187
C      2.593555   -0.621728    1.342847
C     -2.368116   -0.953996    1.470861
C      0.254461    2.399251   -0.894606
C     -2.609586    0.206127    0.488406
C      1.405077    1.729305   -0.183199
C     -1.058377    1.837406   -0.471510
C     -1.125338   -1.586362    0.879844
C     -1.265999    0.674311    0.103275
C      1.641768    0.410644   -0.849685
C     -0.318480   -0.391281    0.492577
C      0.755259   -0.679254   -0.502425
C      2.198414   -0.717992   -0.089415
H     -2.467129    2.677353   -1.852062
H     -1.834298    3.785599   -0.614944
H     -3.055842    2.609602   -0.100887
H     -1.455052   -2.023068   -1.244881
H     -2.645035   -2.755671   -0.155058
H     -0.977195   -3.394765   -0.210368
H      4.185962   -1.212386   -0.658626
H      3.014322   -1.469297   -1.973697
H      3.142059   -2.641575   -0.558030
H      3.707543   -0.496363    1.381829
H      2.393261   -1.607124    1.830667
H      2.154953    0.190540    1.908619
H     -2.170691   -0.507242    2.466326
H     -3.230217   -1.639787    1.472606
H      0.301004    3.481164   -0.634043
H      0.355213    2.277198   -1.994708
H     -3.185479   -0.171446   -0.404600
H     -3.206446    0.930630    1.047814
H      1.215770    1.682083    0.881790
H      2.302398    2.361068   -0.349742
H     -0.611952   -2.123889    1.684992
H      1.881797    0.524792   -1.948995
H      0.183987   -0.033915    1.433482
H      0.499581   -1.432699   -1.282219
