29

C     -1.661251    2.494843    0.248202
C     -2.276236   -0.422351   -0.419656
C     -0.422834   -1.706902    1.181418
C      0.662674   -1.855372   -0.982482
C      0.492579    1.324574    0.823896
C      2.343892    0.248786   -0.380824
C     -0.673494    1.341938    0.207375
C     -0.853794    0.077293   -0.516092
C      1.196631    0.046342    0.569208
C      0.143150   -0.881767    0.043025
O      3.253993    1.155745    0.157401
H     -1.075943    3.419484    0.423154
H     -2.325599    2.333838    1.103734
H     -2.176731    2.540325   -0.717820
H     -2.398254   -1.218155   -1.177438
H     -2.539147   -0.754634    0.604179
H     -2.946018    0.443857   -0.674023
H     -1.248060   -2.327568    0.761091
H      0.407545   -2.407967    1.484437
H     -0.747704   -1.068005    2.019961
H     -0.218319   -2.435190   -1.345577
H      1.348382   -2.563396   -0.510824
H      1.138214   -1.364358   -1.850896
H      0.888950    2.153963    1.446631
H      1.954569    0.679992   -1.332087
H      2.876274   -0.666959   -0.634754
H     -0.642761    0.254221   -1.588247
H      1.583898   -0.311152    1.546454
H      3.915393    1.468573   -0.489446
