72

C     -0.079696    5.628056   -1.427045
C      4.267578   -1.153899   -1.893836
C     -3.364770   -2.035199    2.503372
C     -1.324570    4.833032   -1.229601
C     -1.095748    3.359396   -1.105439
C      7.031379   -2.056695    2.136784
C     -7.017210   -0.461515   -0.516127
C      5.966789   -2.910907    1.960282
C      7.020291   -0.854151    1.468479
C     -5.839097    0.012404   -1.076466
C     -6.953388   -1.089744    0.710465
C     -0.209673    3.064694    0.067102
C      4.899336   -2.567574    1.123188
C      5.958839   -0.518521    0.639253
C     -4.635178   -0.132408   -0.439862
C     -5.746204   -1.226362    1.332355
C      0.071067   -2.576827   -0.252453
C     -1.178629   -2.916600   -1.031488
C      0.654532   -0.330074   -1.215369
C     -1.161355    0.809586    0.458994
C      3.727363   -0.990703   -0.455705
C     -3.269454   -0.907589    1.461061
C      4.889019   -1.364460    0.455040
C     -4.576077   -0.760066    0.784168
C      0.058081    1.588023    0.244535
C      0.204306   -1.093862   -0.010071
C      0.995973    1.072023   -0.817977
C     -1.129959   -0.495004    0.345246
C     -2.346401   -2.560648   -0.205474
C      2.413777    1.132319   -0.356507
N      3.289003    0.290411   -0.284120
N     -2.257296   -1.326932    0.536129
O     -3.381527   -3.249538   -0.114486
O      2.796594    2.451260    0.082009
H      0.388492    5.956721   -0.476328
H     -0.360834    6.570712   -1.964674
H      0.634063    5.099960   -2.088357
H      3.966792   -0.276175   -2.511977
H      3.825442   -2.048615   -2.371825
H      5.358286   -1.232190   -1.901982
H     -3.714216   -1.618931    3.450016
H     -2.372696   -2.533366    2.616114
H     -4.045888   -2.791592    2.065502
H     -2.017552    5.025187   -2.062753
H     -1.845575    5.207496   -0.306099
H     -0.630481    3.001289   -2.023665
H     -2.109882    2.896456   -0.923924
H      7.857378   -2.340845    2.794759
H     -7.959933   -0.336382   -1.037197
H      5.992034   -3.851134    2.492910
H      7.865374   -0.192651    1.617772
H     -5.946552    0.504239   -2.053905
H     -7.887810   -1.450647    1.126080
H      0.763186    3.565583   -0.082790
H     -0.660784    3.518973    0.969979
H      4.072097   -3.244012    0.992927
H      5.952978    0.422745    0.117804
H     -3.749594    0.260919   -0.932337
H     -5.762890   -1.735884    2.309729
H      0.109459   -3.107204    0.706678
H      0.919905   -2.904194   -0.877621
H     -1.177607   -3.997855   -1.199118
H     -1.153721   -2.384705   -1.999121
H      1.428090   -0.817417   -1.826042
H     -0.276715   -0.221505   -1.873995
H     -2.116501    1.259248    0.710093
H      2.952139   -1.785270   -0.316027
H     -3.065687    0.052220    1.959726
H      0.634492    1.524593    1.218668
H      0.940672   -0.947852    0.800359
H      0.957040    1.762496   -1.717504
H      3.559303    2.527659    0.721690
