42

C     -4.186772   -0.187107    2.171954
C      5.120348   -0.063324    2.768277
C     -5.420651   -0.180538    1.555753
C      5.992365   -0.105073    1.674913
C     -3.021988    0.112839    1.499976
C      3.760944   -0.127964    2.541827
C     -5.488005    0.138449    0.217314
C      5.486338   -0.208965    0.401884
C     -0.671008    0.896109   -0.585247
C     -2.823560    0.987317   -1.986341
C      1.844411   -0.549226   -2.648249
C     -2.135415    0.778936   -0.804327
C     -3.082198    0.432633    0.161696
C      3.225342   -0.232653    1.272940
C     -4.328523    0.439568   -0.462057
C      4.130390   -0.270430    0.220265
C     -0.015454   -0.466552   -0.499877
C      2.274061   -0.434869   -1.222871
C     -0.277423   -1.154116   -1.787041
C      1.867927   -0.298114    1.032603
N     -4.131782    0.778495   -1.755902
N      0.550600   -1.192710   -2.747914
N      3.600777   -0.372748   -1.016055
N      1.379968   -0.399746   -0.217878
O     -1.505103   -1.821095   -2.008914
O      1.112801   -0.257574    2.044796
H     -4.152803   -0.439032    3.219341
H      5.539542    0.019571    3.774696
H     -6.339600   -0.422444    2.107036
H      7.056572   -0.053583    1.864955
H     -2.068762    0.101832    2.000286
H      3.108542   -0.094040    3.398432
H     -6.465800    0.142469   -0.266281
H      6.167882   -0.240087   -0.430584
H     -0.471963    1.516005    0.299660
H     -0.252362    1.452116   -1.458268
H     -2.399800    1.272347   -2.951256
H      1.725703    0.487263   -3.024957
H      2.559713   -1.082863   -3.271345
H     -0.504351   -1.023768    0.326537
H     -4.913576    0.860594   -2.465746
H     -1.847326   -2.003503   -2.944030
