46

C      5.313688   -1.287059    0.545344
C     -3.030935    2.729898    1.444206
C      0.601110    0.369810   -0.757948
C      0.481924   -0.819266   -1.288164
C      1.748514    2.181057    0.454599
C     -3.271260   -1.978664   -0.079496
C      2.785509    2.757827    1.121927
C     -3.950399   -1.907963    1.113721
C     -1.987324   -0.886735   -1.925033
C      2.936940    0.190495    0.147517
C     -2.812056    0.313898    0.074960
C     -0.296009   -1.749330   -3.461944
C      1.771560    0.883347   -0.060337
C     -2.672207   -0.838838   -0.637222
C     -0.628316   -1.420900   -1.992357
C      3.941079    2.046861    1.318347
C     -4.082122   -0.741058    1.819731
C      4.007782    0.767902    0.829273
C     -3.502050    0.383056    1.287044
O      0.754925   -2.630507   -3.554976
O      5.016924    2.595266    1.990476
O     -4.769766   -0.690437    3.020213
O      5.166127    0.042850    1.021167
O     -3.630630    1.570138    1.995905
H      5.218097   -1.350946   -0.549624
H      6.331745   -1.640235    0.818240
H      4.562544   -1.977613    0.976717
H     -3.255930    3.635020    2.041511
H     -1.934391    2.571992    1.411170
H     -3.367962    2.916735    0.393554
H     -0.232672    1.031625   -0.870408
H      1.399344   -1.451105   -1.162938
H      0.854487    2.774640    0.320236
H     -3.154063   -2.891668   -0.656149
H      2.759105    3.765235    1.518111
H     -4.405260   -2.798861    1.526765
H     -2.627483   -1.516582   -2.612544
H     -2.076901    0.139655   -2.367718
H      3.011680   -0.814863   -0.227572
H     -2.401216    1.254423   -0.288009
H      0.012978   -0.770710   -3.905653
H     -1.202360   -2.057463   -3.987719
H     -0.701888   -2.501817   -1.553246
H      1.543705   -2.228440   -3.129583
H      4.967732    3.537203    2.350657
H     -5.194299   -1.507873    3.412228
