72

C     -0.615913    4.928407   -1.749543
C      4.066600   -1.964821    2.377252
C     -4.373239    1.508885    0.077608
C      0.025565    3.537777   -1.531877
C     -0.684920    2.515353   -2.366260
C      6.974666   -1.069566   -1.568699
C     -4.530312   -3.333881   -1.782390
C      6.408197   -2.325405   -1.461887
C      6.430597   -0.040035   -0.848088
C     -4.088988   -3.389120   -0.472673
C     -4.861104   -2.120542   -2.306421
C     -0.172790    1.127505   -2.308241
C      5.317103   -2.538408   -0.646462
C      5.329277   -0.260984   -0.026507
C     -3.987369   -2.242212    0.281590
C     -4.753617   -0.974635   -1.534847
C     -0.686395   -0.270481    3.196828
C     -1.918715    0.401584    3.735804
C      0.505994    0.999897    1.372707
C     -1.510322    0.384159   -0.347989
C      3.580392   -1.773544    0.954858
C     -4.182671    0.151940    0.654557
C      4.751958   -1.497633    0.094111
C     -4.322538   -0.991995   -0.242127
C     -0.161111    0.451974   -0.973369
C     -0.446873   -0.118159    1.746945
C      0.946485    0.800461   -0.062140
C     -1.678852    0.119278    0.927449
C     -3.057352   -0.088403    2.909159
C      2.058076   -0.219944   -0.123703
N      2.541185   -0.802077    0.879737
N     -2.979238    0.066179    1.479021
O     -4.085181   -0.629113    3.374816
O      2.544803   -0.500808   -1.385954
H     -0.561241    5.230837   -2.796703
H     -0.076587    5.601677   -1.053928
H     -1.664922    4.862645   -1.360574
H      4.630980   -1.027992    2.636540
H      3.195538   -1.999668    3.037300
H      4.745389   -2.814005    2.442132
H     -4.493301    1.580961   -1.012011
H     -3.546037    2.200889    0.438053
H     -5.291518    2.048739    0.473509
H      1.071499    3.619500   -1.797753
H     -0.169274    3.372147   -0.426940
H     -1.793469    2.559767   -2.161479
H     -0.580354    2.864360   -3.440935
H      7.837742   -0.883509   -2.208912
H     -4.592600   -4.268270   -2.336111
H      6.838798   -3.133984   -2.030595
H      6.876572    0.940591   -0.934484
H     -3.824611   -4.375831   -0.060342
H     -5.205009   -2.051365   -3.316606
H      0.916056    1.184075   -2.637197
H     -0.643403    0.464968   -3.077014
H      4.848752   -3.516911   -0.541719
H      4.905444    0.557279    0.539528
H     -3.642588   -2.345283    1.280854
H     -5.029911   -0.003340   -1.972008
H     -0.842714   -1.371025    3.407340
H      0.231933    0.013927    3.751248
H     -1.862196    1.489953    3.776931
H     -2.091677   -0.044034    4.761030
H     -0.053498    1.939496    1.460185
H      1.394979    1.057909    1.995315
H     -2.368731    0.558738   -0.977399
H      3.122039   -2.763653    0.661813
H     -5.040370    0.043225    1.402173
H      0.020768   -0.662522   -1.247296
H      0.068218   -1.063425    1.389820
H      1.436263    1.728093   -0.390672
H      2.849643   -1.436588   -1.662339
