44

C      5.437990   -2.835030    0.966366
C     -5.683314   -2.066220    0.517231
C      0.558423    5.020573   -0.507791
C      5.199875   -1.489982    1.134784
C      4.447382   -3.597929    0.372056
C     -5.230000   -2.022381   -0.777555
C     -4.915243   -1.458891    1.490510
C      0.296912    4.401015    0.706038
C      0.662329    4.270164   -1.657709
C      4.004486   -0.902367    0.725171
C      3.271230   -3.001029   -0.025710
C     -4.062409   -1.397406   -1.078102
C     -3.714428   -0.819224    1.172964
C      0.143361    3.010992    0.737739
C      0.506636    2.920714   -1.589017
C      1.722603   -1.128336   -0.278059
C      1.373548    0.106318   -0.031842
C     -2.034408   -0.169594   -0.624028
C      3.043344   -1.661817    0.145663
C     -3.253389   -0.769046   -0.115060
C      0.244084    2.243989   -0.400554
C      0.100935    0.763898   -0.392115
N     -1.054372    0.281182    0.309059
H      6.393952   -3.255070    1.301443
H     -6.618484   -2.574899    0.730122
H      0.689084    6.079380   -0.607990
H      5.940984   -0.817259    1.602178
H      4.674635   -4.651386    0.262213
H     -5.806967   -2.489682   -1.574484
H     -5.275327   -1.498596    2.501498
H      0.222630    5.008451    1.575001
H      0.865160    4.711987   -2.626716
H      3.851597    0.168801    0.876259
H      2.533852   -3.666640   -0.480712
H     -3.754787   -1.393986   -2.129795
H     -3.116003   -0.341381    1.930362
H     -0.063237    2.545366    1.689161
H      0.581398    2.322056   -2.470132
H      1.029920   -1.761528   -0.810599
H      2.086856    0.752790    0.511747
H     -1.539329   -0.888861   -1.328009
H     -2.295648    0.699700   -1.338785
H     -0.059349    0.493635   -1.486342
H     -1.406511    0.857530    1.073538
