42

C      4.648899    1.819758    0.449700
C     -5.918369   -1.597898   -0.111238
C      5.756384    0.976674    0.454045
C     -6.420536   -0.310617   -0.100015
C      3.379454    1.299652    0.555749
C     -4.559260   -1.852794   -0.195031
C      5.584323   -0.378979    0.564448
C     -5.500318    0.712809   -0.176561
C      0.610851   -0.442133    0.820255
C      2.504433   -2.116438    0.875140
C     -1.001222    2.381773   -0.495155
C      2.037220   -0.798447    0.793500
C      3.182567   -0.044074    0.666113
C     -3.675977   -0.796051   -0.269831
C      4.302063   -0.861679    0.668409
C     -4.133143    0.490143   -0.261468
C     -0.021497   -0.237041   -0.512993
C     -1.938012    1.241466   -0.415132
C      0.630223    0.855691   -1.305804
C     -2.291905   -1.023059   -0.355373
N      3.847726   -2.112736    0.797326
N      0.170632    2.061059   -1.290102
N     -3.253091    1.494212   -0.334576
N     -1.441624   -0.007251   -0.426735
O      1.745881    0.538792   -2.064817
O     -1.948225   -2.230626   -0.357821
H      4.850896    2.880501    0.359823
H     -6.584272   -2.445208   -0.053945
H      6.772181    1.355862    0.372099
H     -7.489450   -0.140892   -0.033452
H      2.523518    1.939638    0.557686
H     -4.176509   -2.864153   -0.203042
H      6.417874   -1.067235    0.571694
H     -5.855694    1.719565   -0.170271
H      0.017602   -1.098426    1.492385
H      0.553911    0.563838    1.343944
H      1.930270   -3.017052    0.982608
H     -0.727970    2.697032    0.534432
H     -1.461043    3.285195   -0.974238
H      0.112796   -1.167850   -1.111513
H      4.467455   -2.972004    0.832111
H      2.350954    1.268980   -2.472353
