29

C      3.891728    1.047718   -0.784709
C      3.677224   -0.310877   -0.685938
C      2.958827    1.894584   -0.265399
C      2.534824   -0.793212   -0.070192
C      1.818287    1.404087    0.349227
C     -2.971695   -0.768187   -0.289069
C     -2.318735   -1.915059   -1.059796
C      0.341500   -0.456257    1.128835
C      1.576264    0.044577    0.462974
C     -1.793999    0.202071   -0.253249
C     -0.950565   -1.886218   -0.473432
C     -2.143462    1.358427    0.553814
N     -0.752059   -0.628685    0.207618
O     -0.140666   -2.842710   -0.589256
O     -1.628420    1.717747    1.625543
O     -3.180196    2.166275    0.074269
H      4.774386    1.467649   -1.259828
H      4.428545   -0.967336   -1.103834
H      3.069116    2.957607   -0.311343
H      2.400151   -1.871303   -0.011182
H      1.081469    2.071393    0.759366
H     -3.139159   -1.115598    0.742623
H     -3.840302   -0.360165   -0.790188
H     -2.834807   -2.874529   -0.865210
H     -2.336656   -1.626154   -2.123748
H      0.131284    0.217943    1.963269
H      0.642228   -1.436069    1.605711
H     -1.621199    0.484306   -1.329700
H     -3.673913    2.817971    0.703565
