40

C      0.534651    1.638451    1.246261
C      0.438977   -0.735892    1.712728
C      4.387891   -0.232186   -1.194004
C      3.391650    0.456112   -1.837359
C      4.120867   -0.769468    0.047335
C     -1.513814   -2.169028   -0.427865
C     -2.910179   -1.667933   -0.266854
C      2.139410    0.622741   -1.279641
C      2.865643   -0.596703    0.590649
C     -0.672825   -1.149696   -1.107116
C     -3.065976   -0.198319   -0.476113
C      1.835690    0.101648   -0.048997
C     -0.584137    0.184268   -0.398451
C     -1.939755    0.613196    0.134899
C     -2.664134    2.909028    0.639537
C      0.516715    0.255909    0.587872
Cl    -2.977184    4.505168   -0.023809
O     -2.808681    2.623969    1.845054
O     -2.239212    1.942827   -0.235589
H      1.484121    1.720370    1.867336
H     -0.269026    1.702773    1.983654
H      0.531824    2.424107    0.465605
H      0.849881   -1.738348    1.488434
H     -0.576164   -0.869556    2.142495
H      1.072961   -0.322268    2.540274
H      5.369142   -0.330257   -1.685226
H      3.547985    0.906156   -2.829373
H      4.910619   -1.307695    0.564726
H     -1.522351   -3.065571   -1.113163
H     -1.141992   -2.553401    0.527397
H     -3.561591   -2.165682   -1.025242
H     -3.306683   -1.998436    0.713716
H      1.431935    1.192179   -1.873731
H      2.713186   -1.040777    1.560637
H     -1.129463   -0.986210   -2.122689
H      0.355588   -1.567831   -1.242217
H     -3.998032    0.116131    0.046340
H     -3.191895    0.106081   -1.533377
H     -0.364639    0.921284   -1.198236
H     -2.061002    0.522860    1.214103
