38

C      3.626649    0.612961   -1.127168
C     -2.658226   -1.901623    0.957495
C     -1.939499    1.398089    1.272947
C     -1.213393    1.785056    0.035147
C     -0.333146    1.318709   -2.032567
C      1.092904    0.926026   -1.750634
C     -1.444315    0.031857    1.680061
C     -2.163038   -0.253313   -0.706156
C      2.805342    0.192426   -0.211584
C     -1.226950    0.909209   -0.962363
C      1.318020    0.149368   -0.507526
C      0.802708   -1.234143   -0.433694
C     -0.313697   -1.672789    0.218759
C      3.310967   -0.231171    1.080857
C     -1.545922   -0.929690    0.537827
O      4.537072   -0.183847    1.292711
O      2.480353   -0.684665    2.083440
O     -0.177980   -1.737842   -1.285197
H      3.316563    0.934105   -2.089893
H      4.699944    0.630506   -0.873187
H     -2.502642   -2.848734    0.389557
H     -2.570866   -2.144786    2.049199
H     -3.654966   -1.474042    0.809461
H     -1.797204    2.147308    2.084322
H     -3.023680    1.405464    1.043174
H     -0.686776    2.708546   -0.105627
H     -0.657838    0.876469   -3.018094
H     -0.358540    2.423554   -2.222460
H      1.487638    0.351277   -2.642318
H      1.670970    1.882422   -1.777201
H     -2.096514   -0.255744    2.564723
H     -0.439561    0.108762    2.127257
H     -2.182163   -0.958316   -1.535016
H     -3.144928    0.160370   -0.528639
H      0.926129    0.802574    0.331000
H      1.684621   -1.971079   -0.478881
H     -0.317823   -2.720318    0.656920
H      2.689788   -0.552954    3.073352
