27

C     -2.241604   -3.364504   -0.963078
C      3.819459    0.282858   -0.959773
C     -1.373950    3.132131    1.321618
C     -0.659013    2.323487    2.173329
C     -1.559122    2.688596    0.023060
C     -0.156205    1.133514    1.746731
C     -1.041619    1.471115   -0.404019
C     -1.234024   -2.564049   -0.253328
C     -0.318859    0.655036    0.459347
C      0.246581   -0.636190    0.056952
C      1.497619   -0.509610   -0.723399
O     -0.792221   -3.016527    0.841086
O      1.548431   -1.018383   -1.872194
O      2.606650    0.135966   -0.255808
O     -0.730161   -1.356720   -0.685099
H     -1.725300   -4.301483   -1.306895
H     -2.659348   -2.880000   -1.845382
H     -3.006563   -3.707199   -0.236669
H      4.628041   -0.082317   -0.286927
H      4.010097    1.366954   -1.161129
H      3.843231   -0.308820   -1.896249
H     -1.775240    4.079412    1.658103
H     -0.502538    2.649177    3.189549
H     -2.122855    3.330500   -0.641480
H      0.397666    0.531208    2.446496
H     -1.208397    1.165155   -1.419161
H      0.509244   -1.199306    0.994317
