29

C      4.205432    0.475676    0.184457
C     -2.530391    0.136758    1.755423
C      3.310521   -0.542566   -0.493500
C      1.907545   -0.363548    0.060788
C      0.933944   -1.331632   -0.549620
C     -0.462142   -1.176521   -0.014542
C     -1.032647    0.177864   -0.261772
C     -2.434805    0.346767    0.266815
C     -3.963360    1.785278   -0.974731
Cl    -4.556885    3.349828   -1.489294
O     -4.522860    0.732504   -1.378191
O     -2.881061    1.629037   -0.123485
H      5.072739    0.762030   -0.448668
H      3.621002    1.433258    0.314902
H      4.491395    0.166351    1.197583
H     -2.037366    0.907427    2.349849
H     -2.162778   -0.877524    1.977730
H     -3.612580    0.164023    2.013203
H      3.620746   -1.575769   -0.223510
H      3.328862   -0.379915   -1.585460
H      1.557551    0.692447   -0.123598
H      2.000210   -0.517599    1.155188
H      0.916453   -1.156209   -1.656589
H      1.324703   -2.360528   -0.423513
H     -1.099660   -1.993407   -0.395711
H     -0.388598   -1.364915    1.096807
H     -1.091320    0.336510   -1.357775
H     -0.418598    0.937618    0.260568
H     -3.096049   -0.393245   -0.226277
