39

C     -1.435182    2.730573   -0.828269
C     -1.208845   -2.338563   -0.599975
C      2.503065   -1.066017    1.185297
C      2.640514   -1.531308   -1.284918
C     -2.852908   -0.917178    0.495763
C      0.528010    2.708712    0.473829
C     -2.579238    0.429300   -0.154570
C      1.520138    1.609706    0.755716
C     -0.763384    2.095567    0.108132
C     -1.453333   -1.482460    0.615755
C     -1.380056    0.892206    0.645826
C      1.532691    0.647998   -0.399456
C     -0.511441   -0.312721    0.700980
C      0.519482   -0.397717   -0.373066
C      1.905080   -0.806268   -0.148444
H     -2.401996    2.406069   -1.207280
H     -1.041363    3.633919   -1.277067
H     -1.569179   -1.874491   -1.540932
H     -0.170804   -2.712163   -0.662700
H     -1.852899   -3.256412   -0.464753
H      1.910119   -0.784761    2.047159
H      2.826831   -2.140622    1.282358
H      3.471609   -0.490322    1.262203
H      3.664654   -1.109165   -1.340670
H      2.080033   -1.480288   -2.224448
H      2.755329   -2.588228   -0.915173
H     -3.306282   -0.714562    1.487536
H     -3.492257   -1.557470   -0.140983
H      0.380308    3.270384    1.428009
H      0.876842    3.403713   -0.313320
H     -2.296309    0.337387   -1.212530
H     -3.456119    1.111801   -0.008358
H      1.324866    1.157347    1.725100
H      2.531260    2.094443    0.815713
H     -1.426758   -2.131662    1.502684
H     -1.761536    1.134989    1.680133
H      1.958043    1.068804   -1.327959
H     -0.057728   -0.350730    1.731661
H      0.088741   -0.689806   -1.376080
