42

C      5.677771   -0.817469   -0.128874
C      4.271140   -0.323120   -0.490938
C      4.034117    0.950391    0.279614
C      2.671674    1.522021   -0.012734
C      1.552356    0.555085    0.362744
C     -1.887388   -1.995414   -0.310372
C     -4.235328    0.714451   -0.776660
C      0.196647    1.176560    0.054643
C     -0.717807   -1.095558   -0.312926
C     -3.022739   -1.616037    0.564958
C     -4.435701    0.422484    0.717050
C     -2.732275    0.904548   -0.900013
C     -0.863000    0.180118    0.446428
C     -3.073677   -0.214952    1.030380
N     -2.185175    0.692955    0.389975
H      5.595800   -1.303286    0.849219
H      6.371009    0.066298   -0.092363
H      6.056021   -1.514214   -0.876271
H      3.583515   -1.149059   -0.193438
H      4.207965   -0.078414   -1.570258
H      4.196967    0.805857    1.375998
H      4.770343    1.692572   -0.121410
H      2.617872    1.737393   -1.104810
H      2.496090    2.433591    0.578124
H      1.724598   -0.352242   -0.254496
H      1.657427    0.346157    1.440712
H     -2.215405   -2.140807   -1.382871
H     -1.563933   -3.035426   -0.003970
H     -4.811334    1.585452   -1.085083
H     -4.582961   -0.190603   -1.320787
H      0.153146    1.489537   -0.985906
H      0.096288    2.057952    0.734118
H     -0.379746   -0.832721   -1.358704
H      0.182277   -1.625082    0.122563
H     -3.079958   -2.276254    1.481654
H     -3.971850   -1.844864    0.012890
H     -4.514819    1.357687    1.272220
H     -5.258133   -0.291345    0.875311
H     -2.382146    0.231178   -1.691341
H     -2.594966    1.951939   -1.272589
H     -0.656504   -0.068961    1.530337
H     -2.948178   -0.108396    2.134929
