26

C      1.486831   -0.060865    2.096181
C      2.607662   -1.051739   -0.879934
C     -1.584045    2.267867    0.983931
C     -2.457403    1.973648   -0.040552
C     -0.497612    1.487787    1.186067
C     -2.195448    0.882618   -0.836656
C      0.991584   -0.393031    0.678585
C     -0.222073    0.382488    0.389419
C     -1.083954    0.082679   -0.630310
B     -0.808454   -1.156637   -1.519431
O     -0.300017   -1.112634   -2.875612
O     -1.236085   -2.447636   -0.980041
O      1.979957   -0.036335   -0.233358
H      0.608415   -0.031525    2.759530
H      2.082104    0.841480    2.151569
H      2.145245   -0.924080    2.423944
H      3.391976   -0.599869   -1.559941
H      2.033694   -1.712107   -1.514639
H      3.149461   -1.656691   -0.095303
H     -1.821829    3.147601    1.604092
H     -3.343718    2.598938   -0.214658
H      0.173419    1.743340    1.989758
H     -2.849973    0.606102   -1.656774
H      0.849098   -1.472007    0.650931
H     -1.070906   -0.991228   -3.491793
H     -2.027931   -2.368163   -0.385006
