54

C      4.543450   -2.672229   -0.204988
C     -5.148784    3.966070   -1.608260
C      5.845793   -2.042445    0.111614
C      5.836113   -0.552669    0.234726
C      4.985442    0.041531    1.269626
C      3.518590   -0.058780    1.203516
C      2.882255    0.625382    0.022364
C      1.377555    0.400419    0.107493
C      0.748883    1.081440   -1.067052
C     -0.754440    0.929302   -1.101868
C     -3.491638   -2.197957    1.317622
C     -1.412062    1.503892    0.106873
C     -2.799706   -0.888862    1.165015
C     -4.236993   -2.546732    0.047992
C     -4.443244    3.194427   -0.546230
C     -2.891678    1.401798    0.156443
C     -3.437356    0.007523    0.121558
C     -3.418375   -2.030542   -1.080225
O     -4.586041    3.434365    0.667831
O     -2.913825   -2.808650   -1.901104
O     -3.576312    2.154132   -0.813195
O     -3.280339   -0.640547   -1.121363
H      4.713349   -3.563732   -0.891876
H      4.110469   -3.066546    0.762963
H      3.880416   -1.976878   -0.717785
H     -6.201181    4.161186   -1.318661
H     -5.176760    3.325924   -2.518873
H     -4.606711    4.895924   -1.847610
H      6.267820   -2.519543    1.056932
H      6.604736   -2.367472   -0.672491
H      5.736269   -0.062241   -0.772429
H      6.911850   -0.280214    0.509961
H      5.286984   -0.455808    2.255202
H      5.289911    1.120966    1.486469
H      3.122087    0.498906    2.124689
H      3.077099   -1.057522    1.319180
H      3.079372    1.726961    0.054392
H      3.236808    0.197418   -0.917052
H      1.129019   -0.678232    0.041283
H      1.011309    0.744822    1.089401
H      1.071407    2.133301   -1.188947
H      1.148936    0.553333   -1.982981
H     -1.108622    1.356587   -2.057717
H     -0.938609   -0.163488   -1.167606
H     -4.192525   -2.134486    2.189087
H     -2.765095   -3.040521    1.496881
H     -1.000112    0.959483    0.985210
H     -1.134102    2.567113    0.259672
H     -1.707649   -1.026519    0.928296
H     -2.786499   -0.378577    2.168929
H     -5.212752   -1.980889    0.106776
H     -4.451625   -3.629553   -0.041047
H     -3.215630    1.841587    1.127548
H     -4.527254   -0.002157    0.342719
