68

C     -2.521252   -0.148341    2.245889
C     -2.803715    1.101403    1.493044
C     -1.897737   -1.146775    1.684690
C     -2.140184    2.282828    2.155739
C     -1.388280   -1.238091    0.313945
C     -2.423197    3.535633    1.383576
C     -4.108355   -3.457045   -1.136682
C     -3.702761   -3.391296   -2.603265
C      5.421827    2.092114    2.015074
C      4.142898    3.407552    0.543855
C      3.366040   -2.616523    0.047642
C      5.996019    3.223703    2.562061
C      4.720901    4.551530    1.094117
C      2.509169   -3.207619   -0.843037
C     -3.597903   -1.247349   -1.714344
C      4.205634   -0.342718    0.833542
C      1.836847   -1.106157   -1.668860
C      4.490353    2.156730    1.002336
C     -3.542205   -2.221071   -0.522749
C      3.474853   -1.226326    0.095566
C     -2.820610   -2.149230   -2.673584
C      5.652968    4.479477    2.107874
C      1.721476   -2.480917   -1.724757
C     -2.041709   -2.389184   -0.439207
C      3.891649    0.940602    0.430568
C      2.703952   -0.479593   -0.769201
C     -3.833776    3.913014    1.308269
C     -1.554470   -2.364334   -1.874977
N      2.987391    0.825673   -0.532729
N     -0.896615   -3.605094   -2.227560
O      6.225918    5.626389    2.652674
O     -4.753265    3.317324    1.880682
O     -4.192297    5.034816    0.532631
O      0.502350   -2.390844   -4.055421
O      1.267445   -4.570071   -3.354645
S      0.647812   -3.282281   -2.849880
H     -2.840988   -0.223190    3.273422
H     -2.563187    1.052516    0.419659
H     -3.915111    1.297418    1.512130
H     -1.728349   -2.042773    2.319164
H     -2.567171    2.428989    3.180705
H     -1.042753    2.130709    2.260776
H     -0.306045   -1.574747    0.414996
H     -1.335219   -0.323039   -0.265578
H     -2.050888    3.386990    0.323306
H     -1.788178    4.389154    1.754162
H     -5.210442   -3.525692   -1.078658
H     -3.602084   -4.351947   -0.705256
H     -3.210711   -4.290695   -2.965731
H     -4.598546   -3.149469   -3.222834
H      5.698678    1.104614    2.379532
H      3.407546    3.482722   -0.257276
H      3.988886   -3.165485    0.743885
H      6.736643    3.179508    3.366068
H      4.437988    5.511612    0.724351
H      2.427172   -4.273911   -0.878176
H     -3.095782   -0.305243   -1.503177
H     -4.655038   -1.137175   -2.059635
H      4.905774   -0.647570    1.600036
H      1.254167   -0.496558   -2.325322
H     -4.016588   -1.842763    0.360111
H     -2.690519   -1.742646   -3.658446
H     -1.830660   -3.325228    0.075503
H     -0.910712   -1.487556   -2.080890
H      2.559773    1.637972   -1.032881
H     -0.946364   -4.250671   -1.436228
H      7.089237    6.042622    2.281166
H     -5.147698    5.083604    0.232711
