27

C      2.149545   -1.108148    1.422206
C     -1.368644   -1.306898   -0.438456
C     -2.193376    0.815663    0.524806
C      1.680570   -0.598977   -0.877056
C      0.602597   -0.038163   -1.769835
C      0.376618    1.579955    1.019398
C      1.331423   -0.561041    0.549025
C      0.091345    0.066991    1.076698
C     -0.322097    0.900255   -1.019622
C     -1.020039    0.042061    0.048044
O      0.394419    1.852909   -0.339638
H      3.067684   -1.580853    1.102541
H      1.965463   -1.124042    2.504497
H     -1.826671   -1.198262   -1.463095
H     -2.145500   -1.744087    0.192100
H     -0.517837   -2.013902   -0.462478
H     -2.527804    0.571014    1.538993
H     -2.009756    1.907659    0.392201
H     -3.051224    0.590658   -0.174965
H      1.839237   -1.663631   -1.219449
H      2.638353   -0.083777   -1.111134
H      1.065944    0.578866   -2.588543
H      0.006179   -0.815866   -2.272617
H     -0.363705    2.144132    1.586647
H      1.375953    1.730942    1.438629
H     -0.196028   -0.269063    2.061240
H     -1.042649    1.325605   -1.720138
