54

C     -7.606361    1.348153   -1.027978
C     -7.209868   -0.767836    0.182255
C      8.021785    0.852060   -2.144193
C      8.244612    0.218137    0.245777
C      0.527457    0.628783    0.321828
C      0.937539   -1.668403    0.265933
C     -0.797039    0.371307    0.703419
C     -0.353284   -1.941171    0.637450
C      4.959874   -0.874230    0.236054
C      5.424584   -1.145782   -1.155399
C     -4.883658    1.482824    0.301811
C      2.815810   -0.133823   -0.300537
C     -3.583619   -0.330841    1.433102
C     -7.222157    0.709748    0.300201
C      7.309135    0.219367   -0.964927
C      1.409231   -0.386578    0.099031
C     -3.986212    0.316813    0.137587
C     -1.281092   -0.902941    0.871953
N     -6.134700    1.365215    0.879516
O     -4.477075   -0.709943   -0.674723
O      3.609176   -0.985890    0.452376
O      6.780635   -1.004739   -1.244865
O     -2.567212   -1.238299    1.236630
H     -7.387967    0.638858   -1.862804
H     -8.677388    1.552487   -1.050425
H     -7.024129    2.253877   -1.200709
H     -7.100354   -1.134984   -0.874150
H     -6.570413   -1.293670    0.907129
H     -8.258150   -1.142905    0.442839
H      8.079952    1.955630   -2.044866
H      9.066116    0.478411   -2.128647
H      7.581977    0.532234   -3.110957
H      8.444923    1.310151    0.447925
H      7.683043   -0.129469    1.133942
H      9.170238   -0.329202    0.070042
H      0.832282    1.673571    0.207785
H      1.620759   -2.493381    0.094575
H     -1.454955    1.224690    0.911793
H     -0.712029   -2.957245    0.765585
H      5.432945   -1.680703    0.876808
H      5.346475    0.065301    0.688277
H      5.192762   -2.233302   -1.357282
H      4.866095   -0.604295   -1.947553
H     -4.990797    1.931060   -0.751097
H     -4.329346    2.342122    0.821234
H      2.950089   -0.400527   -1.368264
H      3.106820    0.914420   -0.084425
H     -4.444226   -0.876374    1.906457
H     -3.185093    0.440340    2.162171
H     -8.113577    0.939096    1.009074
H      6.490498    0.920515   -0.708329
H     -3.077210    0.662809   -0.392714
H     -6.231799    1.627363    1.884230
H     -4.245104   -1.608809   -0.340614
