68

C     -4.760752   -0.478251    0.582959
C     -6.028976   -0.240977   -0.090736
C     -3.690187    0.247927    0.328910
C     -7.199785    0.152536    0.728205
C     -3.660164    1.334674   -0.624039
C     -7.638913   -0.847098    1.739191
C     -2.466487    0.190008   -3.987788
C     -1.014526    0.593250   -3.686485
C      7.779511   -0.178585    0.512408
C      7.196000   -2.089363    1.780919
C      1.926643   -0.545494    1.793728
C      9.110716   -0.569883    0.526377
C      8.541695   -2.477696    1.791403
C      0.991709    0.415299    1.387930
C     -1.776962   -0.986081   -2.136459
C      4.372400   -1.172597    1.719793
C      2.692408    1.644934    0.321640
C      6.812997   -0.940417    1.142436
C     -2.943748   -0.077484   -2.573040
C      3.242067   -0.398556    1.457009
C     -0.695436    0.096258   -2.316487
C      9.504923   -1.724992    1.167112
C      1.365623    1.506499    0.655822
C     -2.678184    1.144684   -1.753465
C      5.421441   -0.508664    1.124803
C      3.624220    0.701934    0.717885
C     -6.651504   -1.149086    2.762786
C     -1.238365    1.094427   -1.290715
N      4.935850    0.607309    0.534706
N     -0.558365    2.337352   -1.333272
O     10.847389   -2.131172    1.187964
O     -6.405177   -2.357342    3.095468
O     -5.963207   -0.125983    3.395942
O     -0.925882    2.796832    1.212473
O      0.881546    4.019773    0.049277
S      0.170296    2.673408    0.184419
H     -4.723194   -1.304720    1.303344
H     -5.993968    0.433752   -0.975177
H     -6.265869   -1.254041   -0.609388
H     -2.764590   -0.004432    0.889977
H     -8.093872    0.358442    0.062767
H     -7.031859    1.142800    1.235577
H     -3.251782    2.243615   -0.059113
H     -4.587095    1.696214   -1.051186
H     -7.909656   -1.812632    1.198171
H     -8.628733   -0.527664    2.200825
H     -3.019822    0.966752   -4.512829
H     -2.381544   -0.772494   -4.532716
H     -1.011860    1.698172   -3.780944
H     -0.334222    0.226869   -4.483234
H      7.492076    0.717799    0.011219
H      6.453872   -2.690120    2.275984
H      1.646367   -1.405228    2.368756
H      9.861939    0.050158    0.020664
H      8.836864   -3.373713    2.288515
H     -0.015154    0.202620    1.712008
H     -1.877705   -1.264983   -1.089849
H     -1.601438   -1.790083   -2.845276
H      4.431769   -2.102753    2.273271
H      3.042287    2.504568   -0.264401
H     -3.912556   -0.520595   -2.476791
H      0.301537   -0.247600   -2.121079
H     -2.740416    2.030226   -2.448069
H     -1.212977    0.594143   -0.300213
H      5.531468    1.294755    0.008833
H      0.151899    2.466806   -2.065049
H     11.503718   -1.854436    1.907980
H     -5.016299   -0.259581    3.751839
