21

C     -3.035649    1.283261    0.063978
C      1.791671    1.527233    0.146643
C      1.859880    0.151912    0.083845
C      0.541542    2.137187    0.156469
C     -0.536279    0.035136    0.043023
C      1.236940   -2.484975   -1.388444
C      0.711221   -0.598664    0.032055
C     -0.614315    1.401285    0.105248
C      0.828555   -2.067249   -0.034294
N      1.569101   -2.802320   -2.434723
O      1.766200   -2.555903    0.870795
O     -1.832181    2.033065    0.116563
H     -3.926133    1.928355    0.051531
H     -3.063240    0.560070    0.889921
H     -3.061368    0.682681   -0.886350
H      2.693896    2.086448    0.185924
H      2.830855   -0.344447    0.075143
H      0.521387    3.221568    0.206499
H     -1.411437   -0.596908    0.000761
H     -0.160883   -2.523901    0.149297
H      1.290238   -3.073834    1.566115
