23

C      0.453621    0.839412   -1.019747
C      1.449262    0.386767    0.025237
C     -0.858847    1.069451   -0.262905
C      1.053157   -0.999150    0.465507
C     -1.335124   -0.331694    0.113756
C     -0.336699   -1.027516    0.999068
O      2.712474    0.440267   -0.494822
O     -1.814996    1.669730   -1.042392
O      1.222228   -1.952594   -0.532243
O     -2.576403   -0.318393    0.693581
O     -0.367011   -0.570037    2.307519
H      0.769064    1.708592   -1.590112
H      0.241643    0.016904   -1.731066
H      1.350861    1.049390    0.899938
H     -0.620488    1.607582    0.668051
H      1.738567   -1.299474    1.305196
H     -1.355290   -0.904816   -0.850474
H     -0.654239   -2.106090    1.041299
H      3.068246   -0.410516   -0.822621
H     -1.617752    2.639072   -1.110546
H      1.489560   -1.574626   -1.395617
H     -3.247436   -0.260473   -0.055293
H     -0.764397    0.328213    2.388686
