55

C      2.098175    2.493343   -0.055862
C      3.889169    1.562083    1.277604
C      1.877122   -2.010255   -1.101922
C     -2.260800   -1.094018    0.622591
C     -3.145011    2.008324    0.937131
C      2.505051   -0.819116    1.688852
C      1.957108   -2.157247    1.331911
C     -0.079467   -2.828901    0.074751
C     -0.991235   -2.357036   -1.017600
C     -2.352840   -0.549038   -1.821484
C     -3.159754    1.889722   -1.584580
C      2.380934    1.440946    0.972233
C     -3.251484    0.491374   -1.183345
C      2.033973    0.101694    0.473842
C      0.657909   -0.409593    0.424483
C     -0.341740    0.028864   -0.559558
C     -1.021874    1.327990   -0.336099
C      1.049651   -1.879786    0.160059
C     -1.476627   -1.000062   -0.648581
C     -2.516610    1.353477   -0.268454
O     -0.739099    2.254644   -1.380958
H      1.890441    2.039581   -1.052870
H      1.243731    3.087911    0.257152
H      2.984017    3.166288   -0.222701
H      4.108596    1.252782    2.311827
H      4.159516    2.639184    1.203714
H      4.485907    1.030804    0.519134
H      1.587142   -2.972624   -1.623950
H      2.968005   -2.188342   -0.869728
H      1.712119   -1.226719   -1.839936
H     -2.285357   -2.140359    1.057629
H     -3.336706   -0.842703    0.532563
H     -1.775398   -0.491375    1.424498
H     -2.716793    1.668423    1.885549
H     -4.250376    1.925246    0.903161
H     -2.937410    3.113157    0.827758
H      2.001570   -0.450340    2.602426
H      3.590871   -0.804486    1.736030
H      2.732183   -2.915619    1.083516
H      1.330908   -2.605964    2.149275
H     -0.555100   -3.078838    1.025490
H      0.357473   -3.793643   -0.305411
H     -0.409783   -2.324201   -1.960409
H     -1.846581   -3.017151   -1.140425
H     -2.926515   -1.437055   -2.149397
H     -1.743091   -0.157747   -2.635356
H     -2.480359    2.117751   -2.428530
H     -4.055930    2.499613   -1.522948
H      1.923138    1.686768    1.963039
H     -4.244450    0.103438   -0.894889
H      2.671174   -0.267913   -0.346445
H      0.228653   -0.409976    1.454977
H      0.078749    0.050112   -1.595874
H     -0.643572    1.751305    0.613064
H     -0.959324    3.145281   -0.966950
