54

C      1.320029    0.163150   -2.615795
C     -3.044413    1.955064    0.095469
C     -3.746569   -0.194083    1.011232
C     -1.553182   -2.371314    0.852499
C      1.835002   -0.973726    1.970338
C      0.164838    2.056638    0.758703
C      0.832862    1.328404    1.896827
C     -2.847510   -0.101476   -1.332849
C     -1.925850   -1.300826   -1.337873
C      3.934582    0.067791    0.094311
C      0.350049   -1.326509   -0.281333
C      1.875044    0.410069   -1.255272
C     -0.300465    0.934709   -0.119354
C      3.121031   -0.441129   -1.073635
C      3.003396    0.874182    0.947529
C     -1.387288    0.109491    0.491926
C     -2.764173    0.472572    0.055469
C     -1.126367   -1.260948   -0.078477
C      1.635974    0.278821    1.161945
C      0.926046    0.031420   -0.137442
O      3.895873   -0.237582   -2.230958
O      3.349828    1.922346    1.416884
H      1.893340    0.796928   -3.343800
H      0.267199    0.408273   -2.748793
H      1.558793   -0.893511   -2.912457
H     -2.397531    2.499848   -0.593498
H     -4.140862    2.065881   -0.146487
H     -2.956205    2.268066    1.156712
H     -4.472865    0.530570    1.432205
H     -3.214469   -0.636845    1.892640
H     -4.325024   -0.933811    0.441115
H     -2.621649   -2.611545    0.662227
H     -0.983474   -3.299077    0.611505
H     -1.345406   -2.146032    1.918270
H      2.413647   -0.676011    2.881438
H      2.498611   -1.638098    1.395742
H      0.911248   -1.433395    2.325578
H      0.977983    2.588929    0.203981
H     -0.606615    2.757633    1.064366
H      0.143297    0.925811    2.635502
H      1.504160    2.045080    2.440403
H     -2.507139    0.675100   -2.043549
H     -3.912070   -0.398947   -1.505099
H     -1.348090   -1.298605   -2.261594
H     -2.578245   -2.214599   -1.369932
H      4.366443   -0.736138    0.709589
H      4.739489    0.752093   -0.254996
H      0.801347   -2.101910    0.363235
H      0.526767   -1.669329   -1.333006
H      2.132202    1.464026   -1.147818
H     -0.606097    1.262441   -1.114833
H      2.895849   -1.505072   -1.010854
H     -1.362371    0.041965    1.579870
H      4.199001    0.713214   -2.217806
