35

C      0.206006    2.541105   -0.530825
C      4.808076   -0.199680   -0.158620
C     -0.410322   -1.662902    1.500504
C     -1.364014   -2.070339   -0.684527
C      2.239217   -0.059364   -0.175605
C      1.087971    0.152498    0.438011
C     -2.046036    1.759715   -0.129913
C     -2.439926   -0.503580    0.841572
C     -0.791055    1.429948   -0.291590
C      3.518420    0.033635    0.511999
C     -3.021667    0.670405    0.104275
C     -0.237236    0.058546   -0.264368
C     -1.120422   -0.968425    0.329915
O      3.505105    0.326548    1.730268
O     -3.602374    0.224901   -1.074804
H      1.137262    2.167680   -0.971799
H      0.336594    3.131013    0.392266
H     -0.224179    3.255394   -1.292713
H      4.696028   -1.015012   -0.903534
H      5.213383    0.708802   -0.648650
H      5.535133   -0.559046    0.590331
H     -0.476070   -1.085507    2.424407
H      0.599487   -1.985910    1.220389
H     -1.009390   -2.606074    1.667327
H     -1.561252   -3.043048   -0.204828
H     -0.561689   -2.135393   -1.430307
H     -2.291443   -1.754879   -1.246155
H      2.208356   -0.309651   -1.226498
H      1.154568    0.402554    1.496353
H     -2.326035    2.811159   -0.172692
H     -2.385492   -0.203885    1.921480
H     -3.205139   -1.309427    0.806841
H     -3.838930    1.102113    0.726891
H      0.009644   -0.190236   -1.333848
H     -3.342578    0.886340   -1.790891
