39

C      3.940368   -0.514216   -0.992384
C      4.005911    1.646520    0.355522
C     -2.776062   -1.997091   -0.558509
C     -1.205225   -1.139532    1.706522
C      1.509972   -1.280739    0.284983
C      2.175772   -0.011415    0.619278
C     -3.384275    1.190331   -0.086845
C     -2.305932    1.459895    0.935858
C      0.170428   -1.175295   -0.357564
C     -1.338089    1.262701   -1.140157
C      3.324172    0.380589    0.034981
C     -2.181068   -0.831449   -0.466786
C     -2.598074    0.402427   -1.130804
C     -0.987844    0.979397    0.336895
C     -0.921829   -0.494203    0.350089
H      4.846264   -0.058248   -1.415608
H      3.196502   -0.672644   -1.804352
H      4.215128   -1.474998   -0.506304
H      4.514284    2.072669   -0.546117
H      3.351055    2.416942    0.769354
H      4.832711    1.485572    1.096008
H     -2.431441   -2.894518   -0.045501
H     -3.669677   -2.093240   -1.180180
H     -0.580280   -0.717880    2.498360
H     -1.057151   -2.235106    1.553667
H     -2.277428   -1.009595    1.951795
H      1.506846   -1.989437    1.157769
H      2.211623   -1.809407   -0.438040
H      1.805916    0.671072    1.364511
H     -4.200739    0.559355    0.318993
H     -3.746974    2.094512   -0.589212
H     -2.505699    1.060646    1.920508
H     -2.211535    2.577632    0.996666
H      0.366501   -0.773732   -1.386285
H     -0.144332   -2.249508   -0.580874
H     -0.583827    0.959720   -1.837906
H     -1.635691    2.326214   -1.165096
H     -3.082459    0.315805   -2.077578
H     -0.147820    1.560250    0.665981
