36

C      5.357563   -1.379680    0.033338
C      4.620488   -0.103079    0.300013
C      3.101734   -0.312982    0.293196
C      2.501315    1.044910    0.572720
C      0.984171    1.017450    0.603516
C      0.389846    0.563870   -0.676838
C     -1.114879    0.571183   -0.606286
C     -1.650708   -0.335504    0.446913
C     -3.818221   -0.776762   -0.728999
C     -5.242498   -0.242277   -0.539522
C     -3.137025   -0.336670    0.518114
C     -5.044895    0.849848    0.457747
O     -5.943593    1.585964    0.941342
O     -3.700238    0.947148    0.789120
H      4.688721   -2.261100   -0.066016
H      6.011973   -1.573289    0.915154
H      6.037167   -1.251961   -0.834370
H      4.855555    0.369435    1.260702
H      4.813187    0.635192   -0.518291
H      2.778691   -0.653553   -0.727477
H      2.783341   -1.081065    0.998208
H      2.827544    1.328105    1.602018
H      2.898174    1.772770   -0.132469
H      0.664627    2.063673    0.800937
H      0.633018    0.421565    1.464550
H      0.756269   -0.487394   -0.869930
H      0.742948    1.207590   -1.524441
H     -1.405636    1.618425   -0.310213
H     -1.567266    0.314665   -1.590663
H     -1.254047   -0.106174    1.463275
H     -1.334209   -1.377371    0.215551
H     -3.432713   -0.331397   -1.659787
H     -3.819797   -1.892274   -0.785346
H     -5.926546   -1.018780   -0.168987
H     -5.605873    0.242557   -1.472298
H     -3.448190   -1.033037    1.345297
