31

C      2.369870   -0.977419   -0.273119
C      1.758937   -1.489675    0.986031
C     -2.005775    0.131724   -1.177037
C      2.286289    0.505116   -0.302687
C      0.400275   -1.009661    1.282455
C     -0.635432   -0.438696   -0.837637
C     -2.865794   -0.218079    0.016324
C     -1.099792    0.904563    1.237181
C      0.998301    1.102082    0.058506
C     -0.092390    0.129352    0.451847
N     -2.444376    0.538856    1.128294
O      0.500490    1.802735   -1.065818
H      3.466653   -1.248641   -0.238202
H      1.987548   -1.474097   -1.187612
H      2.458165   -1.223691    1.825704
H      1.801355   -2.615272    0.946687
H     -1.939904    1.211792   -1.362167
H     -2.379219   -0.438450   -2.050035
H      3.075684    0.897973    0.403687
H      2.652851    0.843643   -1.316199
H     -0.320369   -1.866486    1.151086
H      0.318470   -0.742871    2.365334
H      0.010043   -0.219499   -1.712016
H     -0.798434   -1.552091   -0.749131
H     -2.798916   -1.287384    0.197275
H     -3.921842    0.009737   -0.247423
H     -1.011230    2.014597    1.051698
H     -0.806530    0.810931    2.325755
H      1.098317    1.882083    0.856280
H     -3.089497    1.381765    1.214663
H      1.026255    2.635061   -1.184615
