33

C      4.855013   -0.535389   -0.600008
C     -1.771332   -1.388609    1.133557
C     -4.501144    0.644590   -0.557299
C      3.903477    0.590076   -0.253192
C      2.515994    0.050193    0.069421
C      1.588952    1.165502    0.408689
C      0.216240    0.708535    0.749497
C     -0.410887   -0.024998   -0.406158
C     -1.829703   -0.475918   -0.052764
O     -4.714340   -1.456434   -2.158839
O     -3.345162    0.434536   -2.947744
O     -2.354231   -1.141108   -1.143225
S     -3.716388   -0.398814   -1.763456
H      4.841965   -0.763108   -1.689888
H      5.878741   -0.183925   -0.351786
H      4.631273   -1.426726    0.015061
H     -2.373006   -2.309463    0.913471
H     -0.729694   -1.733386    1.304837
H     -2.191303   -0.877867    2.029818
H     -4.029591    1.639964   -0.498555
H     -4.541603    0.170944    0.438238
H     -5.568869    0.762134   -0.888403
H      3.824635    1.224004   -1.164231
H      4.324850    1.142897    0.600131
H      2.640787   -0.613996    0.939522
H      2.143775   -0.562575   -0.759722
H      1.978701    1.726633    1.309008
H      1.542104    1.947163   -0.386749
H      0.286247    0.006205    1.629247
H     -0.450888    1.568995    1.000771
H      0.205939   -0.935669   -0.636244
H     -0.433523    0.622267   -1.298521
H     -2.417030    0.423346    0.198284
