36

C     -4.752537   -0.965894   -0.698346
C     -4.654747    0.537504   -0.565926
C     -3.210975    0.974520   -0.335934
C     -2.765303    0.306475    0.940000
C     -1.336453    0.659075    1.294076
C     -0.445240    0.209564    0.183116
C      1.019971    0.520724    0.452271
C      1.790932    0.020265   -0.731674
C      3.866813   -0.430167    0.595383
C      5.266460   -0.737790    0.078680
C      3.273085    0.257375   -0.614405
C      4.960510   -1.156419   -1.312715
O      5.582883   -2.057398   -1.938846
O      3.896687   -0.366458   -1.721830
H     -5.732695   -1.186991   -1.197726
H     -4.772982   -1.396321    0.320579
H     -3.895147   -1.402477   -1.228389
H     -5.233038    0.883962    0.312055
H     -5.064528    1.061410   -1.462466
H     -3.206439    2.073066   -0.258831
H     -2.652918    0.601303   -1.218574
H     -3.465693    0.513499    1.773803
H     -2.869395   -0.802655    0.753590
H     -1.024199    0.153028    2.222331
H     -1.314370    1.762023    1.433484
H     -0.568883   -0.857288    0.005309
H     -0.696192    0.832924   -0.724306
H      1.370970    0.090742    1.399292
H      1.106248    1.626044    0.533103
H      1.618059   -1.062585   -0.864726
H      1.434005    0.561888   -1.621645
H      3.390888   -1.427112    0.775321
H      3.920663    0.200738    1.481383
H      5.765245   -1.518209    0.670342
H      5.859734    0.207636    0.008104
H      3.538580    1.313999   -0.563000
