24

C      3.236003   -0.749130    0.421159
C     -1.018361   -1.500475   -0.449946
C     -2.223663    0.393028    0.474389
C      0.412033   -1.168901   -0.131135
C     -1.098459    1.322593    0.812642
C      2.241063    0.334355    0.195338
C     -1.751537   -0.229141   -0.819484
C      0.853263    0.061687   -0.074400
C     -0.078368    1.178756   -0.288447
N     -0.920844    0.767292   -1.425758
O      2.671422    1.538990    0.250575
H      4.238986   -0.387419    0.183014
H      3.035255   -1.621795   -0.223561
H      3.216296   -1.110929    1.482648
H     -1.454915   -1.985569    0.445046
H     -1.068915   -2.188807   -1.314497
H     -3.181537    0.901998    0.293341
H     -2.283282   -0.370976    1.275547
H      1.052822   -2.016471    0.048488
H     -0.697295    1.222516    1.817452
H     -1.501791    2.372085    0.723029
H     -2.590214   -0.457468   -1.506122
H      0.413173    2.137791   -0.471861
H     -1.501135    1.555989   -1.717458
