20

C      0.819816    1.473590   -0.139221
C      1.545217    0.577757    0.514772
C     -0.598904    1.276426   -0.514884
C      0.849064   -0.688349    0.872397
C     -1.000012   -0.160080   -0.615461
C      0.119516   -1.127589   -0.375858
O     -1.409829    1.990000    0.387712
O      1.674707   -1.644825    1.393196
O     -1.989057   -0.412580    0.340728
O      0.981892   -1.119420   -1.485923
H      1.303752    2.402234   -0.410330
H      2.581106    0.724820    0.787639
H     -0.745672    1.770285   -1.498934
H      0.068809   -0.417661    1.618012
H     -1.418153   -0.400143   -1.636965
H     -0.288321   -2.129745   -0.241843
H     -1.938836    1.409698    0.962472
H      1.680620   -1.513306    2.395327
H     -2.665816   -0.997468   -0.059703
H      0.430103   -1.013644   -2.293134
