20

C      0.265363   -1.442103   -0.674105
C     -0.936763   -1.004213   -0.972173
C      1.131020   -0.646857    0.213792
C     -1.507449    0.256048   -0.475683
C      0.870762    0.839579    0.083429
C     -0.590845    1.104813    0.312905
O      2.467456   -0.948424    0.045826
O     -2.625029   -0.062720    0.323745
O      1.346910    1.350722   -1.099514
O     -0.831903    0.888937    1.685750
H      0.615562   -2.368970   -1.071863
H     -1.584349   -1.597791   -1.635673
H      0.864359   -0.922023    1.272023
H     -1.928849    0.818987   -1.356998
H      1.428724    1.331167    0.910036
H     -0.777634    2.178564    0.107811
H      2.882463   -1.400399    0.805208
H     -2.279019   -0.306236    1.229226
H      1.223322    0.737124   -1.868875
H     -0.034101    1.193796    2.165132
