31

C     -2.752769    0.367961    0.001263
C     -2.211473   -0.785253    0.818055
C      2.384269   -0.183397   -1.050867
C     -1.698369    1.434673   -0.035723
C     -0.955409   -1.348632    0.234117
C      1.102790   -0.919437   -0.957445
C      2.777745    0.551828    0.194977
C      0.742216   -0.020232    1.361447
C     -0.403107    0.957218   -0.597754
C      0.119916   -0.296353    0.033604
N      2.145830    0.095894    1.377866
O     -0.502941    0.858329   -1.985553
H     -3.629904    0.774725    0.550330
H     -3.105273    0.066503   -0.993652
H     -2.978599   -1.575099    0.805492
H     -2.060003   -0.432996    1.849624
H      2.318075    0.535582   -1.918914
H      3.174774   -0.919561   -1.381897
H     -2.053394    2.278763   -0.653867
H     -1.580376    1.807088    1.019087
H     -0.533883   -2.061772    1.000271
H     -1.135417   -1.942127   -0.662531
H      0.545114   -0.974903   -1.924640
H      1.269884   -1.957281   -0.598155
H      3.887433    0.373407    0.322270
H      2.713118    1.669227    0.043107
H      0.286814    0.933588    1.756823
H      0.448280   -0.795645    2.129042
H      0.357131    1.763327   -0.409022
H      2.667051   -0.657493    1.868279
H     -1.339521    0.402069   -2.195636
