23

C     -1.567923    0.798561   -1.530484
C     -0.333703   -1.539989    0.537866
C      1.571840   -0.450957   -0.694380
C     -1.030525   -0.486840    1.413537
C      1.927039    0.552967    0.362632
C      0.092058   -0.789841   -0.716223
C     -0.632174    0.820431    0.709877
C      0.778527    1.171669    1.029911
N     -0.628625    0.400295   -0.638549
O      0.972750    2.010655    1.884855
H     -1.124909    1.462997   -2.326203
H     -2.373975    1.410389   -1.027618
H     -2.050060   -0.048429   -2.071162
H      0.572627   -1.925509    1.079204
H     -1.029137   -2.373895    0.296819
H      1.816122   -0.085330   -1.718117
H      2.146072   -1.390488   -0.565021
H     -2.121396   -0.594372    1.260717
H     -0.700306   -0.521019    2.446060
H      2.564824    0.050977    1.121015
H      2.590743    1.316053   -0.129925
H     -0.096700   -1.407246   -1.602974
H     -1.343170    1.618919    0.878165
