30

C      3.308479   -0.317346    0.941829
C     -1.942847    2.032093   -0.608706
C     -1.036005   -1.786407   -0.192681
C     -2.190729   -1.159731    0.502613
C     -0.427087   -0.869758   -1.243689
C     -1.845312    0.238399    1.012864
C      0.991839    0.347718    0.425251
C      2.269925   -0.220327   -0.174524
C     -0.091361    0.474512   -0.631205
N     -1.265467    0.958396   -0.025429
O      2.780819    0.621255   -1.160304
H      4.297539   -0.106486    0.503451
H      3.258593   -1.324550    1.379505
H      3.051847    0.463344    1.691926
H     -1.292301    2.546719   -1.335872
H     -2.303369    2.754829    0.134362
H     -2.835612    1.654479   -1.164854
H     -1.401383   -2.680279   -0.739432
H     -0.245968   -2.142704    0.504162
H     -2.443239   -1.754505    1.392889
H     -3.034958   -1.061728   -0.207078
H     -1.272819   -0.658679   -1.962799
H      0.424242   -1.330957   -1.729077
H     -2.750940    0.757085    1.375958
H     -1.209487    0.081404    1.918354
H      0.686848   -0.277404    1.267257
H      1.248774    1.358194    0.800363
H      2.068639   -1.243298   -0.534596
H      0.229696    1.157758   -1.439247
H      2.971646    1.487972   -0.701290
