26

C      2.638790   -0.519317   -0.844209
C     -2.019743   -0.594883    0.682858
C     -1.246308   -0.495697   -1.622517
C      0.099727    1.071731    1.447923
C      0.538977   -0.377111    1.634671
C      0.818771    1.199421   -0.867044
C      1.436252   -0.104611   -0.542003
C     -0.398091    1.198163    0.028980
C      0.428164   -0.888910    0.209521
C     -0.882539   -0.243323   -0.203285
H      3.024704   -1.497439   -0.569269
H      3.365453    0.095317   -1.407626
H     -2.962918   -0.315536    0.167944
H     -2.028621   -1.711776    0.799904
H     -2.026638   -0.075322    1.658933
H     -0.529797   -1.264376   -2.028941
H     -1.280796    0.397787   -2.256743
H     -2.256233   -0.987739   -1.734141
H      1.017604    1.701526    1.547245
H     -0.617786    1.396164    2.201818
H      1.605631   -0.442817    1.918882
H     -0.069830   -0.920965    2.347177
H      1.437542    2.066816   -0.578606
H      0.568994    1.316115   -1.931878
H     -1.133381    1.946057   -0.157934
H      0.472072   -1.949275    0.098339
