26

C      2.407970   -0.965451    0.841875
C      2.073669    0.175974   -1.320056
C     -3.295290    1.098544   -0.071331
C     -1.774405   -0.675004   -0.944801
C     -0.585871   -1.184608   -0.155330
C     -0.371070    0.742297    1.546357
C      1.638581    0.135053    0.131998
C     -2.097929    0.587396   -0.254387
C     -0.768588    1.136238    0.178789
C      0.170173    0.026381    0.305439
H      2.472115   -1.890412    0.227376
H      1.893772   -1.166991    1.823560
H      3.416163   -0.581519    1.124600
H      1.569752    1.030899   -1.825299
H      1.949331   -0.781169   -1.833422
H      3.162882    0.425899   -1.337639
H     -3.487265    2.030673    0.442705
H     -4.156145    0.571400   -0.449741
H     -2.588129   -1.427321   -0.876691
H     -1.505992   -0.428730   -1.990262
H     -0.886938   -1.829662    0.670976
H      0.043562   -1.757765   -0.856899
H      0.283888    1.424206    2.091958
H     -1.001859    0.097288    2.173519
H      1.982554    1.088319    0.585550
H     -0.544931    2.118067   -0.228844
