64

C     -2.847854    1.393522   -0.371201
C     -4.138905    1.543247   -1.024403
C      9.604864    2.291276   -1.724005
C      9.261574    2.153070   -0.399708
C      8.620424    1.957387   -2.638223
C     -2.164336    0.276278   -0.164708
C     -5.200263    2.146655   -0.126714
C      8.026805    1.713607    0.002047
C      7.369019    1.512657   -2.268013
C     -2.698444   -1.019898   -0.617487
C     -4.795611    3.526208    0.351259
C      5.745268    0.917942   -0.466503
C     -4.450381   -3.575732    1.344272
C     -3.446369   -3.402583    2.505912
C      4.752596    0.592533   -1.269728
C      2.336051   -0.233823   -1.163222
C      1.319105   -0.611425   -0.392332
C     -2.408823   -4.290198    0.613670
C      7.056077    1.385071   -0.935063
C     -3.472994   -3.289715    0.194636
C     -2.087498   -3.585455    1.965899
C      3.506917    0.143723   -0.633593
C     -2.851668   -1.958585    0.549247
C     -4.597826    4.438906   -0.800188
C      1.480059   -0.610766    0.971928
C     -1.590389   -2.282733    1.283657
N     -1.096701   -1.317118    2.131978
O     -5.611004    4.921580   -1.371472
O     -3.330348    4.751868   -1.235529
O      0.609253    0.093398    3.405925
O      1.215099   -2.192433    3.115216
S      3.224540   -0.022340    1.094782
S      0.532995   -1.051763    2.362369
H     -2.371387    2.319774    0.000581
H     -3.995111    2.325368   -1.835800
H     -4.575501    0.694548   -1.525148
H     10.591304    2.642251   -2.027109
H      9.993513    2.400819    0.369123
H      8.857064    2.054779   -3.705685
H     -1.220207    0.341966    0.360316
H     -6.109595    2.255679   -0.751101
H     -5.452851    1.544328    0.743331
H      7.803196    1.621474    1.064896
H      6.617437    1.257939   -3.017043
H     -1.946861   -1.469764   -1.332178
H     -3.634909   -0.988035   -1.177650
H     -5.591649    3.964475    0.986213
H     -3.872947    3.500063    0.962189
H      5.616091    0.846638    0.619118
H     -5.260496   -2.851992    1.384666
H     -4.775141   -4.622778    1.261690
H     -3.684442   -2.419190    2.950596
H     -3.619211   -4.224453    3.252169
H      4.860641    0.656019   -2.330252
H      2.228575   -0.225243   -2.287140
H      0.327357   -0.954564   -0.789997
H     -1.523213   -4.266562   -0.033670
H     -2.817651   -5.282525    0.807679
H     -3.873053   -3.399308   -0.785750
H     -1.341018   -4.089685    2.537568
H     -3.529019   -1.444387    1.263446
H     -0.809995   -2.710443    0.563585
H     -1.599222   -1.290708    3.041470
H     -3.162930    5.499156   -1.891617
