63

C     -2.650384    0.478272    0.962463
C     -3.210066    1.490302    0.074022
C     -1.663183   -0.306229    0.613930
C     -3.070044    2.882269    0.659284
C     -1.022283   -0.251838   -0.687095
C     -3.758279    3.058526    1.976569
C     -2.548690   -2.766110   -3.013771
C     -1.651011   -3.928248   -2.571179
C      5.809801    3.988893    0.039318
C      1.836303   -1.262063    1.580714
C      4.976355    3.742854    1.107527
C      2.132810   -0.056665    2.174277
C     -2.740306   -3.019942   -0.714942
C      5.260820    1.884354   -0.948481
C      3.321142   -0.654218   -0.174405
C     -2.548647   -1.916843   -1.769682
C     -1.490276   -3.797990   -1.078748
C      5.956559    3.074414   -0.982772
C      2.446162   -1.560409    0.382582
C     -1.121715   -1.527120   -1.487489
C      4.423094    1.637272    0.125425
C      3.619127    0.555018    0.420174
C      4.270141    2.544673    1.150931
C      3.006285    0.852740    1.622346
C     -5.206340    2.873390    1.961982
C     -0.444763   -2.709000   -0.837007
N      0.804486   -3.048258   -1.483311
O      6.811643    3.355502   -2.053647
O     -5.843296    2.655402    0.910457
O     -5.973068    2.930653    3.143733
O      3.345302   -3.482740   -1.164319
O      1.855608   -4.141181    0.622685
O      3.435061    2.052074    2.006960
S      2.100531   -3.060508   -0.394608
H     -3.104545    0.392264    1.974226
H     -2.884502    1.494416   -0.962602
H     -4.323998    1.260358    0.020200
H     -1.272278   -1.064681    1.339914
H     -1.994952    3.136874    0.823055
H     -3.531391    3.620432   -0.045760
H     -1.228122    0.609351   -1.330980
H      0.096909   -0.150442   -0.475862
H     -3.443587    4.023295    2.438531
H     -3.350656    2.278108    2.689441
H     -2.164981   -2.268292   -3.902741
H     -3.594067   -3.152129   -3.196677
H     -2.051279   -4.894316   -2.896317
H     -0.656916   -3.713482   -3.030283
H      6.361365    4.931723    0.011434
H      1.132201   -1.962435    2.054981
H      4.890943    4.488408    1.888114
H      1.628382    0.146826    3.127521
H     -3.630897   -3.633387   -0.965274
H     -2.738597   -2.640777    0.303771
H      5.347315    1.149733   -1.721223
H      3.829320   -0.846476   -1.123562
H     -3.276008   -1.138401   -1.721527
H     -1.333037   -4.702643   -0.532140
H     -0.606381   -1.360146   -2.458942
H     -0.338508   -2.496611    0.238243
H      0.941405   -2.373634   -2.263564
H      7.790850    3.104074   -2.060929
H     -6.962866    3.194743    3.087391
