60

C     -1.508736   -3.169270   -3.788236
C     -4.260651   -2.315148    0.221866
C      3.700871   -1.781545    0.299370
C      1.351457   -2.453721    0.563709
C      2.461273   -0.818262    2.893486
C     -1.685514    5.073570    1.795131
C     -0.440007    4.972798    1.227479
C     -2.706163    4.263834    1.351039
C     -0.171243    4.081406    0.218822
C     -2.432787    3.357730    0.325671
C      3.199776    0.561910   -0.486015
C      3.122544    0.758765    1.038916
C     -2.846745   -2.674236   -1.749479
C     -0.982354   -1.275228   -2.266104
C     -2.283340   -0.850133   -0.347385
C     -1.787518   -2.369745   -2.588584
C     -3.107998   -1.925099   -0.625919
C     -1.222322   -0.508561   -1.146163
C     -1.182319    3.270895   -0.229633
C      1.931822   -0.309093   -0.671541
C      0.814906    0.538276   -0.115714
C      0.743516    0.193028    1.348553
C      2.256732   -1.301252    0.428006
C      2.182631   -0.283766    1.566199
N     -0.381647    0.576970   -0.850635
O     -0.163189   -0.779829    1.672542
O      0.164474    2.627670   -2.443462
O     -2.159981    1.993884   -2.299094
S     -0.898357    2.120577   -1.507864
H     -2.194326   -2.876761   -4.600907
H     -0.471487   -2.960038   -4.144959
H     -1.665133   -4.261637   -3.630330
H     -4.084742   -1.923268    1.246312
H     -4.428706   -3.411096    0.222265
H     -5.199341   -1.848362   -0.142492
H      3.977226   -2.006747   -0.742378
H      4.389506   -1.143579    0.846559
H      3.721037   -2.777863    0.837580
H      1.933185   -3.380653    0.244407
H      1.102594   -2.710878    1.635820
H      0.458507   -2.485713   -0.074701
H      3.369597   -0.349087    3.314658
H      2.655582   -1.905230    2.839488
H      1.619803   -0.623864    3.574304
H     -1.891810    5.775096    2.586988
H      0.362464    5.604032    1.571127
H     -3.681257    4.354314    1.807248
H      0.844816    4.029903   -0.212970
H     -3.277676    2.748457    0.020237
H      3.053519    1.515414   -1.019602
H      4.092489    0.012398   -0.797929
H      2.672110    1.760818    1.188965
H      4.135854    0.721037    1.499464
H     -3.471572   -3.528125   -2.004329
H     -0.167640   -1.074568   -2.949211
H     -2.536111   -0.287399    0.534742
H      1.814603   -0.700811   -1.651370
H      1.206750    1.618678   -0.111244
H      0.576270    1.102291    1.992092
H     -0.625244   -0.563181    2.532965
