57

C     -4.735662    1.421577    3.105213
C     -4.405447   -1.928545   -3.635990
C      5.118275   -3.518585    0.954153
C      4.209795    3.859322   -0.654260
C     -5.062374    1.386942    1.772214
C     -3.624130    0.760412    3.563733
C     -4.091291   -2.950223   -2.777944
C     -4.049811   -0.626924   -3.381185
C      3.793888   -3.608329    1.334881
C      5.481484   -2.442376    0.190278
C      3.385178    3.394755   -1.661194
C      4.391898    3.056897    0.445582
C     -4.254317    0.671322    0.875934
C     -2.843454    0.061871    2.660302
C     -3.398721   -2.682090   -1.621030
C     -3.361410   -0.347820   -2.234904
C      2.866568   -2.640600    0.955187
C      4.571840   -1.485995   -0.186630
C      2.765230    2.181401   -1.580413
C      3.774528    1.832205    0.541916
C     -0.748410    1.440898   -0.520458
C      0.519239    1.189365    1.301275
C     -3.137076    0.003345    1.318931
C     -3.041288   -1.387943   -1.360844
C      3.232970   -1.569190    0.193537
C      2.952146    1.371187   -0.464514
C     -0.588932   -0.029155   -0.364068
C      0.550126   -0.171145    0.593954
O      0.191635    2.067141    0.283345
P     -2.113169   -0.908896    0.154641
P      2.120174   -0.255570   -0.357623
H     -5.374483    1.981714    3.784429
H     -4.948088   -2.158804   -4.536583
H      5.801771   -4.278638    1.263330
H      4.682684    4.838102   -0.767519
H     -5.943642    1.915528    1.431651
H     -3.388884    0.804090    4.621585
H     -4.381373   -3.988732   -2.992533
H     -4.295859    0.171067   -4.052563
H      3.433436   -4.418498    1.931251
H      6.526328   -2.370226   -0.110921
H      3.205071    3.985781   -2.552517
H      5.047540    3.448021    1.225110
H     -4.579682    0.693476   -0.155147
H     -1.967213   -0.453471    3.052486
H     -3.121247   -3.437320   -0.906053
H     -3.078616    0.681701   -2.030694
H      1.833398   -2.725131    1.261305
H      4.909687   -0.657152   -0.789177
H      2.121180    1.821917   -2.370116
H      3.936841    1.220229    1.422137
H     -0.520234    1.773257   -1.574185
H     -1.788527    1.806555   -0.331896
H      1.521850    1.429561    1.702202
H     -0.251409    1.222115    2.068887
H     -0.274402   -0.457246   -1.355469
H      0.424390   -0.993152    1.316982
