68

C     -6.760541   -2.119558    1.222427
C     -6.698910   -1.701295   -1.168995
C      5.895278    2.094545    1.339504
C      4.448203    0.237691    1.915293
C     -1.353171   -3.481241   -0.206134
C      3.788784    5.134452   -1.861997
C     -3.472049   -3.111312   -1.381898
C      5.225403    3.098900   -1.782879
C     -3.858380   -1.679051   -1.212400
C      5.224054    1.648795   -1.550605
C     -0.918756    0.506984    2.236966
C     -0.117881    0.476281    1.212582
C     -3.470332   -3.327082    1.102234
C      2.881949    2.865417   -1.261451
C     -5.892597   -2.251587    0.014604
C      5.222597    0.897364    0.800133
C     -2.850227   -3.744509   -0.181439
C      4.045947    3.831592   -1.183541
C     -4.638637   -1.447757    0.077146
C      4.363163    1.112301   -0.432943
C     -3.706889   -1.844396    1.204060
C      3.118676    1.848267   -0.157394
C     -2.150951   -0.273796    2.272322
C      1.119177    1.226683    1.112309
O     -2.921320   -0.241609    3.265838
O      1.563240    1.989903    1.990060
O     -2.534005   -1.089625    1.208864
O      1.939334    1.168557    0.015171
H     -6.390268   -1.370437    1.956642
H     -7.837366   -1.919468    0.953647
H     -6.770512   -3.087195    1.763546
H     -6.484945   -2.276876   -2.073249
H     -6.499096   -0.600109   -1.277171
H     -7.783560   -1.784442   -0.954093
H      6.467304    2.646745    0.569719
H      5.263774    2.740771    1.978320
H      6.700520    1.719669    2.043615
H      4.074978    1.064635    2.580002
H      5.187507   -0.313587    2.545278
H      3.651026   -0.392906    1.509984
H     -0.920705   -3.848507   -1.154043
H     -1.083008   -2.440534   -0.007303
H     -0.927071   -4.112489    0.622232
H      4.770473    5.515731   -2.242000
H      3.109283    5.050941   -2.712742
H      3.419018    5.875937   -1.116431
H     -4.304341   -3.735433   -1.796379
H     -2.689522   -3.139028   -2.197066
H      6.169364    3.644345   -1.550783
H      5.113759    3.284337   -2.897237
H     -2.931206   -1.048722   -1.215779
H     -4.424844   -1.366344   -2.107678
H      4.966268    1.119684   -2.521480
H      6.260292    1.291108   -1.343802
H     -0.687261    1.117422    3.093320
H     -0.404459   -0.160851    0.372907
H     -4.430417   -3.892844    1.278059
H     -2.805841   -3.683462    1.929984
H      2.777680    2.385808   -2.248294
H      1.969670    3.428607   -0.974626
H     -5.709778   -3.309089   -0.193280
H      6.025579    0.162900    0.496104
H     -2.966652   -4.859162   -0.303613
H      4.268618    4.013616   -0.118750
H     -4.859509   -0.373951    0.132869
H      4.172623    0.035851   -0.768402
H     -4.224925   -1.661705    2.165152
H      3.276388    2.454118    0.765830
