44

C      4.768103    0.596719   -0.986845
C     -3.426909    3.337075   -0.090932
C      4.150358    1.524300    0.021823
C     -3.206324    1.919818    0.333020
C      2.957765    0.899175    0.708883
C     -2.570078   -2.320552   -0.396803
C      1.868660    0.529959   -0.268160
C     -1.331692   -2.557056   -1.227059
C     -2.801875   -0.893433   -0.063231
C      1.136888   -1.307853    1.265367
C      0.146251   -2.352669    0.799077
C      0.730810   -0.082804    0.517920
C     -0.194805   -1.851119   -0.585655
C     -1.623945   -0.061495    0.201772
C     -1.916173    1.369621   -0.186984
N     -0.379719   -0.451758   -0.347647
O     -1.175801    2.034445   -0.865548
H      5.611248    1.152990   -1.463112
H      5.238820   -0.251667   -0.447933
H      4.091279    0.281728   -1.780982
H     -2.517494    3.959548   -0.066089
H     -3.899612    3.310081   -1.112242
H     -4.205768    3.767445    0.585463
H      4.893579    1.748929    0.797451
H      3.849177    2.489631   -0.444350
H     -3.257279    1.797244    1.449478
H     -4.023356    1.293207   -0.067243
H      2.598140    1.644398    1.454326
H      3.291787   -0.001869    1.221262
H     -2.465359   -2.951483    0.518190
H     -3.419096   -2.759395   -0.965604
H      2.260088   -0.211396   -0.972916
H      1.497859    1.406594   -0.830457
H     -1.126224   -3.646950   -1.187363
H     -1.437735   -2.216308   -2.254226
H     -3.536972   -0.854620    0.787844
H     -3.372616   -0.437880   -0.926550
H      1.145855   -1.188682    2.366459
H      2.147249   -1.661607    0.911338
H     -0.738911   -2.352602    1.470086
H      0.627601   -3.364746    0.750004
H      0.337700    0.669612    1.237222
H      0.759261   -1.947745   -1.183055
H     -1.480734   -0.006828    1.324002
