44

C     -3.986299    2.040352    0.278702
C      3.046051    3.508776   -0.059111
C     -3.633800    1.294521    1.523109
C      2.927824    2.099849    0.467754
C     -2.870199    0.008662    1.228884
C      2.512215   -2.307547    0.099690
C     -1.567415    0.337617    0.491729
C      1.211188   -2.801427   -0.480745
C      2.712418   -0.846506   -0.173214
C     -1.624803   -1.809985   -0.694297
C     -0.718466   -2.190218   -1.829088
C     -0.783659   -0.903008    0.182675
C      0.645877   -1.718463   -1.375044
C      1.458173   -0.026396    0.126614
C      1.807654    1.391373   -0.200404
N      0.351651   -0.509668   -0.630544
O      1.185357    2.028982   -1.033051
H     -4.121352    1.333408   -0.564543
H     -4.957623    2.573348    0.455902
H     -3.167016    2.738382    0.012505
H      2.840183    4.257935    0.734374
H      2.244964    3.671838   -0.835884
H      3.996166    3.662559   -0.570741
H     -2.909870    1.940684    2.102868
H     -4.475862    1.123389    2.195436
H      3.853825    1.548186    0.190219
H      2.798326    2.165191    1.564527
H     -3.498316   -0.609443    0.558427
H     -2.622727   -0.485936    2.170932
H      3.337419   -2.853212   -0.423785
H      2.592959   -2.504928    1.195265
H     -0.968010    0.934789    1.210056
H     -1.783207    0.892962   -0.446034
H      0.493581   -3.008278    0.319788
H      1.336161   -3.709011   -1.104153
H      3.553277   -0.495896    0.442995
H      2.887593   -0.731453   -1.263744
H     -2.523980   -1.299380   -1.095904
H     -1.897877   -2.720196   -0.122666
H     -0.712874   -3.293826   -1.975679
H     -1.015435   -1.663227   -2.761181
H     -0.493765   -1.397954    1.119160
H      1.280859   -1.515115   -2.244034
H      1.258833   -0.151731    1.212237
