48

C     -4.048338   -1.496082   -1.426432
C     -3.835272   -1.346207    0.039742
C      5.898511    0.028603   -0.804015
C      5.873644    1.316315   -0.314039
C      4.767790   -0.743358   -0.780331
C      4.722070    1.860733    0.209280
C      1.735379   -2.095166   -0.444985
C     -2.823861    1.521305    0.822179
C      0.841759   -2.418353    0.743499
C     -2.712411    2.913444    0.299250
C     -0.689441    0.725026   -0.226276
C     -1.363310   -1.799111    0.016677
C     -2.468368   -0.896788    0.435394
C     -2.146666    0.498047   -0.050323
C      3.607997   -0.236407   -0.268814
C      2.363273   -0.790704   -0.131634
C      3.594469    1.070481    0.225234
C      0.159006   -0.085916    0.743518
C      1.583023    0.184658    0.450485
N      2.354264    1.291593    0.651946
N     -0.191125   -1.451721    0.796548
O     -3.390544    3.748252    1.218202
H     -5.017033   -2.017213   -1.581610
H     -4.164137   -0.502058   -1.949322
H     -3.280238   -2.114895   -1.930894
H     -4.557904   -0.579878    0.408129
H     -4.119983   -2.288050    0.548923
H      6.809194   -0.403205   -1.218350
H      6.800016    1.891863   -0.354773
H      4.770828   -1.761651   -1.163193
H      4.770152    2.872826    0.575761
H      2.484582   -2.919710   -0.495382
H      1.133533   -2.021138   -1.363883
H     -3.902013    1.280777    0.917925
H     -2.406032    1.511151    1.852405
H      0.395979   -3.417966    0.657499
H      1.499928   -2.320550    1.654303
H     -1.675270    3.304571    0.271062
H     -3.243085    3.063731   -0.666487
H     -0.373193    1.780534   -0.096412
H     -0.340027    0.439823   -1.255762
H     -1.561919   -2.873688    0.197845
H     -1.114196   -1.590258   -1.048104
H     -2.453907   -0.843223    1.555362
H     -2.625672    0.586301   -1.067710
H     -0.055234    0.363551    1.758355
H      2.013995    2.182540    1.080484
H     -3.620211    4.577171    0.735256
