44

C      5.825780   -0.213288    1.303311
C      4.898534   -1.060810    0.743992
C      5.538355    1.131892    1.350884
C      3.696292   -0.593480    0.234015
C      4.338904    1.588173    0.840800
C     -3.321675    1.156619    0.311364
C     -3.916462   -1.119001    0.548350
C     -4.627300    1.518182    0.580996
C     -5.222469   -0.779983    0.819119
C     -0.574321   -0.069414    1.086863
C      0.811130   -0.506087    0.619261
C      2.136742    1.297732   -0.246384
C      0.196123    0.588977   -1.443763
C     -1.096556   -1.317266   -2.324227
C      3.406132    0.747233    0.279820
C     -2.929872   -0.184761    0.288122
C     -1.092485   -0.125845   -1.361835
C     -5.593448    0.550144    0.838318
C     -1.522245   -0.550019   -0.003715
F     -6.877376    0.892558    1.104079
N      1.192621    0.256535   -0.504136
O     -2.285826   -2.012687   -2.277538
H      6.774435   -0.574724    1.706713
H      5.137647   -2.111216    0.713856
H      6.243330    1.815743    1.781480
H      3.015396   -1.314455   -0.193595
H      4.139278    2.665887    0.893543
H     -2.583411    1.931705    0.113082
H     -3.638257   -2.165610    0.536248
H     -4.955508    2.537665    0.605340
H     -5.971581   -1.554757    1.019771
H     -0.643232    1.029298    1.187104
H     -0.826130   -0.602175    2.014571
H      0.698497   -1.570075    0.332426
H      1.553069   -0.380182    1.449915
H      1.725790    1.965484    0.567345
H      2.333499    1.949042   -1.106982
H      0.027939    1.705095   -1.398257
H      0.623357    0.420646   -2.473769
H     -0.231743   -1.974954   -2.036506
H     -0.914786   -1.003496   -3.358241
H     -1.895280    0.565280   -1.757750
H     -1.478531   -1.671028    0.039003
H     -2.114356   -2.858579   -1.759454
