39

C      4.659757    0.892639    0.042599
C     -1.316610    2.299826    0.239242
C      3.195770    0.993393    0.457598
C      2.730431   -0.412763    0.749259
C     -3.559502   -0.528016   -0.655649
C     -2.710909    0.671996   -0.938735
C      1.291273   -0.480035    1.175687
C     -2.845545   -1.624727    0.060506
C      0.436970   -0.700061   -1.159037
C     -0.621579   -1.770430   -1.014559
C     -1.894906    0.934225    0.334179
C      0.345772    0.057165    0.129586
C     -1.380758   -1.409369    0.233067
N     -0.993426   -0.107030    0.631018
H      5.283392    1.630715    0.602948
H      4.780334    1.016406   -1.059200
H      5.085246   -0.101595    0.286287
H     -0.764176    2.550051    1.180418
H     -2.180960    3.028268    0.223404
H     -0.738519    2.502976   -0.668069
H      2.633019    1.366198   -0.428704
H      3.121868    1.671493    1.306000
H      3.335469   -0.763621    1.625454
H      2.990635   -1.068302   -0.085281
H     -4.400166   -0.191154    0.016672
H     -4.035268   -0.839954   -1.601357
H     -3.404982    1.558247   -1.011771
H     -2.073950    0.570973   -1.820585
H      1.170861    0.081834    2.106207
H      1.037032   -1.534947    1.338131
H     -2.967376   -2.556807   -0.566163
H     -3.303256   -1.886959    1.039630
H      0.236315   -0.047648   -2.050764
H      1.390004   -1.194721   -1.342192
H     -0.168588   -2.781751   -0.967504
H     -1.275514   -1.770432   -1.914828
H     -2.674569    0.962891    1.153923
H      0.620613    1.111836   -0.045244
H     -1.034202   -2.130808    1.029291
