29

C     -4.173342    0.948789    0.182862
C      3.794514   -1.150429   -1.156539
C      4.389293   -0.748452    0.023998
C     -4.293426   -0.378857   -0.200977
C     -2.912738    1.506802    0.336881
C      2.464164   -0.901385   -1.397326
C      3.631329   -0.100367    0.944895
C     -3.154772   -1.133243   -0.426550
C      0.125855    0.609086    1.576609
C     -1.762863    0.748823    0.110378
C      1.657040   -0.234750   -0.465875
C     -0.308735    1.018242    0.187973
C      2.283037    0.149747    0.696161
C     -1.904504   -0.567154   -0.270302
C      0.249668    0.003244   -0.778332
O      1.514162    0.819206    1.655928
O     -0.606457   -1.107399   -0.436145
H     -5.050840    1.566017    0.366955
H      4.387075   -1.673193   -1.910059
H      5.426736   -0.957010    0.181703
H     -5.298178   -0.804322   -0.318014
H     -2.755931    2.536827    0.634262
H      2.000760   -1.221519   -2.331606
H      4.049353    0.241487    1.898341
H     -3.292832   -2.167645   -0.725352
H     -0.435758    1.133580    2.372922
H     -0.055338   -0.480841    1.673141
H     -0.040220    2.052353   -0.062874
H      0.072948    0.292363   -1.834563
