42

C     -0.666582   -1.178615    2.590708
C     -2.005112    2.286393   -0.566053
C      3.727184    0.322233   -0.698954
C      2.439706   -1.124098    0.774030
C     -2.716093   -1.442280   -0.580779
C     -2.113464   -1.677934    0.759134
C     -2.928018   -0.002455   -0.912257
C      1.212084    1.602268    0.170138
C      0.025590    1.315928    1.090327
C     -0.041595   -0.235946   -0.752041
C     -1.188260   -0.857206    1.278339
C     -2.153209    0.905488   -0.009189
C      1.282046    0.458159   -0.790334
C      2.450504   -0.459244   -0.560158
C     -0.811532    0.300691    0.420680
O      2.370383   -1.468665   -1.536292
H      0.335945   -0.839208    2.829520
H     -1.365582   -0.804864    3.379881
H     -0.662429   -2.296692    2.726621
H     -2.912574    2.464617   -1.216831
H     -1.139068    2.422066   -1.224958
H     -2.082373    3.083609    0.219000
H      4.050480    0.756974    0.279172
H      3.646910    1.055209   -1.502175
H      4.532636   -0.393260   -0.982264
H      1.609209   -1.864327    0.898284
H      3.398374   -1.668204    0.892640
H      2.370461   -0.424282    1.624314
H     -3.698575   -1.967994   -0.644177
H     -2.055462   -1.962150   -1.330766
H     -2.448506   -2.548011    1.315504
H     -4.017608    0.258881   -0.761461
H     -2.746994    0.199675   -1.990920
H      2.162501    1.698947    0.758565
H      1.098038    2.581194   -0.349044
H     -0.483723    2.304461    1.231698
H      0.443503    1.045492    2.061356
H     -0.585667   -0.104049   -1.712242
H      0.164764   -1.334787   -0.670502
H     -2.738658    1.000065    0.948430
H      1.429464    0.901498   -1.815721
H      2.811302   -2.309578   -1.215152
