37

C      3.415454    0.562746   -1.104853
C      2.687628   -0.804334    0.807330
C     -2.401573    2.065615    0.630463
C     -0.331928    2.131193   -0.645567
C     -2.517314   -2.283507    0.173261
C      0.883033    1.470390   -0.029569
C     -2.485044   -0.926201   -0.498714
C     -0.028647   -2.017701   -0.421921
C      2.385502   -0.448844   -0.610259
C     -1.553455    1.317432   -0.406743
C     -1.150435   -2.871145   -0.014111
C      1.035768    0.160786   -0.810145
C     -1.335283   -0.069792    0.050514
C     -0.084758   -0.699019   -0.402796
O     -1.019450   -4.096192    0.190211
H      4.123335    0.110838   -1.821710
H      2.937209    1.416229   -1.628134
H      3.996960    0.954501   -0.232319
H      3.748814   -1.148270    0.848146
H      2.648304    0.091364    1.474280
H      2.072024   -1.632473    1.176832
H     -3.475584    1.903035    0.477189
H     -2.177021    3.163404    0.547139
H     -2.034771    1.740611    1.620591
H     -0.431084    3.192543   -0.324964
H     -0.135923    2.173913   -1.744523
H     -3.285465   -2.876647   -0.337401
H     -2.759814   -2.188281    1.253458
H      0.589397    1.212713    1.025294
H      1.773675    2.093832   -0.087633
H     -2.301753   -1.087005   -1.571353
H     -3.430153   -0.398927   -0.361013
H      0.882899   -2.494745   -0.752201
H      2.475427   -1.324105   -1.250585
H     -2.187681    1.330829   -1.341169
H      0.918927    0.384220   -1.889871
H     -1.447222   -0.109002    1.153077
