29

C      3.787507   -0.247568   -0.262057
C     -2.448919    1.474762   -0.338113
C     -2.280308   -0.462817    1.131724
C      1.596962   -1.243686   -0.404124
C      1.629103    1.186763   -0.021090
C      0.123635   -1.335486   -0.408454
C      0.269324    0.882566    0.570747
C      2.296360   -0.127159   -0.232807
C     -0.468071    0.055808   -0.469619
C     -1.951494    0.065253   -0.261842
S     -2.736169   -0.970008   -1.495085
H      4.205312    0.775270   -0.248435
H      4.129161   -0.791292    0.633672
H      4.083551   -0.807504   -1.186325
H     -1.656397    2.224157   -0.522842
H     -3.007031    1.796673    0.577757
H     -3.166578    1.566248   -1.203762
H     -2.139688   -1.543372    1.215601
H     -3.359240   -0.250594    1.354804
H     -1.690173    0.055172    1.909143
H      2.127008   -2.197588   -0.558265
H      1.474125    1.661580   -1.019200
H      2.222979    1.859165    0.627964
H     -0.269345   -1.988338   -1.211709
H     -0.211058   -1.762254    0.581773
H     -0.277340    1.756140    0.905611
H      0.454481    0.214764    1.453200
H     -0.249171    0.476606   -1.464995
H     -2.488529   -2.323264   -1.252198
