28

C     -2.163175    0.597786   -0.883446
C     -1.778030   -1.333718    0.674751
C      2.413086   -1.110239   -0.350520
C      0.239764    1.858277    0.229401
C      1.429980    1.203873   -0.486792
C      0.731773   -0.173088    1.270409
C     -0.014914   -0.706270   -0.882382
C     -0.468391    0.732712    0.938594
C     -1.179653   -0.155852   -0.054163
C      1.245506   -0.250355   -0.177645
H     -1.698647    1.015854   -1.780407
H     -3.011198   -0.054585   -1.148544
H     -2.579539    1.429418   -0.265507
H     -1.727666   -1.200973    1.795360
H     -2.845010   -1.474540    0.424531
H     -1.249616   -2.284481    0.477244
H      3.011121   -1.113590    0.604380
H      2.082017   -2.172708   -0.473252
H      3.010838   -0.842356   -1.217540
H      0.629501    2.560003    1.001775
H     -0.455684    2.318812   -0.470960
H      2.379521    1.618877   -0.156611
H      1.284901    1.380229   -1.561461
H      0.392117   -1.159523    1.597449
H      1.444940    0.326849    1.929420
H     -0.027185   -1.797300   -0.946152
H     -0.056018   -0.225045   -1.890898
H     -1.040339    1.011931    1.802967
