30

C      2.428793    1.606997   -0.251683
C     -0.006604   -2.265625   -0.416858
C     -2.612655   -0.882791   -0.060119
C      2.796064    0.229292    0.124211
C      1.933693   -0.888640   -0.269623
C     -0.321544    0.209678    0.004310
C     -2.333984    1.529651    0.072577
C      0.533834   -0.974453    0.221109
C     -1.718518    0.182044    0.505287
O     -1.585285    2.584674    0.542593
H      2.198747    2.218881    0.640226
H      1.706129    1.712887   -1.086161
H      3.361424    2.115450   -0.668930
H     -0.110661   -2.111668   -1.488466
H     -0.817733   -2.723951    0.126295
H      0.856810   -3.002617   -0.320130
H     -2.850772   -1.686440    0.667463
H     -3.637598   -0.433499   -0.277004
H     -2.249622   -1.215087   -1.027721
H      3.032259    0.237157    1.228619
H      3.818930    0.005302   -0.322260
H      2.463623   -1.830390    0.083639
H      1.907284   -1.024195   -1.376839
H      0.164449    1.074289    0.560721
H     -0.353141    0.427093   -1.091172
H     -3.376368    1.617915    0.435429
H     -2.359044    1.589188   -1.033341
H      0.534831   -1.223773    1.331067
H     -1.787178    0.236723    1.621000
H     -1.616163    2.685909    1.525761
