23

C      1.176161   -0.712954    1.983558
C     -2.916077    0.275627   -0.780352
C     -2.250584    1.121912    0.081017
C     -2.264689   -0.840982   -1.228637
C     -0.958939    0.847017    0.479705
C     -0.968748   -1.118151   -0.829525
C      2.041732    0.552648    0.023227
C      1.928903    0.696831   -1.447877
C      1.093539   -0.532325    0.487333
C     -0.291080   -0.284599    0.028863
O      2.628412    1.533670   -1.993089
H      0.955262    0.226910    2.529609
H      0.426875   -1.499699    2.258278
H      2.177662   -1.102721    2.224611
H     -3.936022    0.500068   -1.090258
H     -2.799448    2.002185    0.418514
H     -2.770700   -1.523281   -1.909373
H     -0.443527    1.510314    1.152050
H     -0.480912   -1.997993   -1.194183
H      1.865988    1.516127    0.559080
H      3.076656    0.220901    0.240464
H      1.256244    0.087522   -2.014896
H      1.453292   -1.479029    0.021883
