43

C     -2.756865    3.253388    1.286817
C     -2.954163   -3.205055    1.693870
C      4.533385    1.908894    2.307460
C      3.862986    0.769683    2.701178
C      4.428996    2.269382    0.980787
C      3.112345   -0.002129    1.842090
C      3.677240    1.499372    0.112816
C     -1.724918    0.788426   -2.603013
C     -0.988533    0.104478   -3.448522
C      0.789290   -2.293216   -1.068285
C     -2.889984    2.081478    0.373252
C     -2.044239   -2.151877    1.167752
C      3.008843    0.362445    0.508239
C     -1.982354    0.415486   -1.188997
C     -0.324821   -1.159338   -3.027417
C     -1.219057   -0.760654   -0.711343
C      2.234727   -0.405749   -0.449358
C     -0.319377   -1.418258   -1.671911
O     -4.032347    1.575050    0.239087
O     -1.237828   -1.605491    1.945465
O      2.184660   -0.018079   -1.639779
O      1.541155   -1.551782   -0.126168
O     -1.851384    1.530864   -0.320518
O     -2.068674   -1.767978   -0.143105
O     -1.071614   -2.248446   -2.649634
H     -2.719090    2.887323    2.321235
H     -3.684927    3.850743    1.175635
H     -1.902750    3.901783    1.005736
H     -3.236199   -3.863233    0.862966
H     -3.898705   -2.742785    2.073730
H     -2.442449   -3.775541    2.476464
H      5.117065    2.491782    3.019993
H      3.919695    0.450657    3.739786
H      4.940499    3.155710    0.636183
H      2.585733   -0.900143    2.159462
H      3.635011    1.842308   -0.932491
H     -2.186903    1.709577   -2.971224
H     -0.873752    0.488470   -4.477578
H      1.512644   -2.567246   -1.890262
H      0.410987   -3.232613   -0.671053
H     -3.077798    0.135574   -1.151823
H      0.583062   -1.385717   -3.651319
H     -0.589592   -0.417542    0.163797
