51

C      2.060783    0.406827    2.270696
C     -2.836813    1.720048    2.096648
C     -2.985866   -2.195862   -1.111510
C     -3.036390   -1.127349    1.722275
C      3.172707   -0.643057   -0.130631
C     -4.087016    1.307743   -1.505066
C      1.703594   -0.530009    0.083054
C     -3.741070    1.751112   -0.150829
C     -3.269275    0.093185   -1.861352
C      3.615242    0.165933   -1.332528
C     -0.310646    0.076572    1.426427
C      6.009223    0.921645   -1.027481
C     -1.122398   -0.406849    0.278241
C      7.235934    0.513345   -1.477239
C      5.790730   -0.827803   -2.335616
C      1.158155   -0.046991    1.186775
C     -3.087113    1.069663    0.753834
C     -3.393416   -0.836837   -0.667716
C      5.062481    0.072740   -1.567191
C     -2.595556   -0.300192    0.508408
O      7.057573   -0.527968   -2.250412
H      1.516398    1.002792    3.026911
H      2.876160    1.058983    1.898077
H      2.457133   -0.509189    2.764850
H     -2.292000    2.660629    1.939879
H     -3.831613    2.031611    2.520791
H     -2.419712    1.031470    2.835591
H     -3.563204   -2.398210   -2.062601
H     -1.922226   -2.246674   -1.432033
H     -3.288575   -2.977613   -0.417169
H     -4.064682   -0.753281    1.976741
H     -3.181266   -2.194411    1.456210
H     -2.416078   -0.974361    2.603550
H      3.391710   -1.717193   -0.370555
H      3.746575   -0.399895    0.772398
H     -3.975704    2.111832   -2.268957
H     -5.157439    0.941742   -1.490362
H      1.030613   -0.865499   -0.718189
H     -4.074381    2.768776    0.118294
H     -2.222743    0.342709   -2.066662
H     -3.758830   -0.420324   -2.722362
H      3.354659    1.229486   -1.109365
H      3.065292   -0.118885   -2.241959
H     -0.476799    1.195075    1.486107
H     -0.503113   -0.405912    2.388811
H      5.860434    1.767741   -0.366048
H     -0.795761   -1.444981    0.059943
H     -0.832654    0.178902   -0.623297
H      8.220575    0.931464   -1.270014
H      5.323880   -1.623687   -2.889188
H     -4.467513   -0.858995   -0.392586
