51

C      1.512379   -1.526178    1.059135
C     -3.619741   -2.240047    0.799394
C     -2.459470    1.297184   -1.576379
C     -2.604230    0.365458    2.141777
C      3.370116   -0.234541   -0.729630
C     -5.051009    1.010863   -0.776917
C      2.036001    0.359850   -0.404852
C     -4.795768   -0.355710   -0.278121
C     -4.177751    1.955506    0.017875
C      4.509855    0.669802   -0.329884
C     -0.142111    0.382844    0.720767
C      6.401508    0.134725   -1.902778
C     -1.259143   -0.527267    0.311504
C      7.539152   -0.644658   -1.853550
C      6.536577   -0.853263    0.050590
C      1.177957   -0.234065    0.419562
C     -3.725264   -0.790841    0.348664
C     -2.764878    1.424020   -0.099699
C      5.769377   -0.002508   -0.689794
C     -2.591464    0.128533    0.631346
O      7.571351   -1.209284   -0.672125
H      1.411038   -2.381967    0.330350
H      2.565157   -1.571659    1.403183
H      0.873072   -1.660721    1.945047
H     -4.611887   -2.549797    1.240888
H     -2.893976   -2.323592    1.611976
H     -3.396785   -2.864819   -0.084789
H     -1.391942    1.421734   -1.804120
H     -3.008959    2.095733   -2.117685
H     -2.751517    0.284371   -1.914512
H     -2.088275   -0.459846    2.678944
H     -3.664022    0.344851    2.519587
H     -2.156241    1.319570    2.419207
H      3.398307   -0.272867   -1.858661
H      3.464116   -1.265110   -0.396229
H     -6.124893    1.294722   -0.579812
H     -4.897998    1.110457   -1.868276
H      1.710421    1.302889   -0.829161
H     -5.593329   -1.096040   -0.450608
H     -4.208153    2.987454   -0.360079
H     -4.542575    1.903077    1.080412
H      4.465608    0.955184    0.741100
H      4.379265    1.614510   -0.921149
H     -0.217548    1.405652    0.298299
H     -0.165270    0.514401    1.839963
H      6.091509    0.734214   -2.758122
H     -1.168823   -0.781168   -0.758403
H     -1.189255   -1.444766    0.916871
H      8.238411   -0.729197   -2.681321
H      6.340990   -1.181079    1.046516
H     -2.099889    2.183388    0.378089
