39

C      3.806582    1.836434    0.780129
C     -2.825799    0.002725   -0.763978
C     -0.663767   -0.862358   -1.791488
C     -2.009209   -1.013957    1.489272
C      3.679859   -0.549034    0.222635
C      2.927833   -1.643373   -0.135522
C     -1.850714    0.484067    1.388389
C     -0.971362   -1.549671    0.545933
C      1.671293    0.788855    0.228861
C     -1.554294    1.997977   -0.556479
C      3.028649    0.639566    0.395158
C      0.907649   -0.274555   -0.124167
C      1.577291   -1.508916   -0.304437
C     -1.519273    0.609394   -0.112061
C     -0.508612   -0.358263   -0.336038
O     -2.760917    2.639275   -0.105601
O      0.891150   -2.671100   -0.669606
H      3.253180    2.521316    1.436021
H      4.722069    1.506881    1.313547
H      4.157023    2.322481   -0.163934
H     -3.645828    0.419856   -0.154682
H     -2.941303    0.414614   -1.780874
H     -2.830992   -1.075909   -0.677729
H     -1.298696   -1.742221   -1.846374
H     -1.056252    0.010856   -2.393322
H      0.299577   -1.098998   -2.256617
H     -1.785141   -1.265492    2.565665
H     -3.022426   -1.375117    1.319166
H      4.754045   -0.659244    0.356259
H      3.422010   -2.606431   -0.280140
H     -1.012823    0.790512    2.013785
H     -2.811921    0.980435    1.622024
H     -1.353669   -2.376721   -0.045191
H     -0.132113   -1.894655    1.211405
H      1.175592    1.730632    0.374844
H     -1.594397    2.152687   -1.655437
H     -0.792043    2.625500   -0.064244
H     -2.652843    3.601827   -0.085242
H      1.320596   -3.549874   -0.804950
