37

C      4.823448    2.276237   -0.128901
C     -4.059273    2.510788   -0.738144
C      3.896894    1.107596   -0.356833
C      2.595446    1.290043    0.405264
C      1.746166    0.098067    0.125181
C     -0.946045   -3.133882   -0.465153
C      0.392450    0.155381    0.831571
C      0.073426   -2.037479   -0.346428
C     -1.618656   -3.016569    0.864473
C     -2.778540   -0.991324    0.027537
C     -0.381924   -1.076947    0.489241
C     -1.725185   -1.472024    0.984769
C     -3.045677    0.442188    0.114360
O     -2.604090    1.156473    1.051891
O     -3.806206    1.123911   -0.831982
H      4.861163    2.495545    0.941271
H      4.438552    3.193958   -0.643872
H      5.832926    2.033485   -0.519600
H     -4.916174    2.705348   -0.039827
H     -3.163775    3.090225   -0.441704
H     -4.369747    2.877447   -1.744947
H      3.677851    0.969258   -1.430680
H      4.424989    0.189041    0.011707
H      2.111721    2.206205    0.044513
H      2.851103    1.367254    1.474218
H      2.237187   -0.836339    0.466851
H      1.590790   -0.006308   -0.974006
H     -1.582457   -2.994478   -1.327911
H     -0.353108   -4.082222   -0.528683
H      0.596767    0.120650    1.918280
H     -0.115127    1.073889    0.519125
H      1.037771   -1.987231   -0.837718
H     -0.963973   -3.334907    1.679515
H     -2.620555   -3.464673    0.909615
H     -3.731150   -1.592982    0.171503
H     -2.497796   -1.267501   -1.039562
H     -1.909192   -1.188122    2.017874
