43

C     -3.200688   -1.164567    0.256413
C     -3.986138    1.126262   -0.229093
C      1.485324    1.863097    0.413030
C      1.504417    0.505687   -1.936315
C      3.406590   -0.640012    0.331564
C      2.892631   -1.656854   -0.645520
C     -1.253105    0.949672    0.945945
C      2.278972   -0.274703    1.260051
C      1.407120   -1.638662   -0.790335
C     -0.057257    0.218878    1.482337
C     -0.636687   -0.372831   -1.104381
C     -2.975443    0.056684   -0.578565
C     -1.550043    0.590165   -0.459196
C      1.120179    0.378107    0.534418
C      0.819328   -0.241004   -0.782061
H     -3.929432   -0.963243    1.095962
H     -3.671682   -1.979055   -0.332533
H     -2.269857   -1.596413    0.681990
H     -3.908041    1.951170   -0.987156
H     -4.987989    0.678701   -0.391910
H     -3.870915    1.498761    0.803134
H      1.614937    2.208415    1.478032
H      0.713778    2.442152   -0.092481
H      2.494202    1.935120   -0.037636
H      0.878912    0.332351   -2.861921
H      1.487941    1.596340   -1.779702
H      2.490628    0.098466   -2.163828
H      3.851718    0.256379   -0.161419
H      4.213274   -1.063326    0.966479
H      3.435471   -1.626652   -1.622824
H      3.157967   -2.668180   -0.214830
H     -2.104449    0.724522    1.645280
H     -1.055630    2.043693    1.086461
H      2.664894    0.409443    2.036851
H      1.972635   -1.211471    1.780529
H      1.090055   -2.104073   -1.746005
H      0.928707   -2.181253    0.056835
H     -0.204908   -0.846711    1.648276
H      0.244885    0.693156    2.438284
H     -0.776106   -0.251573   -2.221371
H     -0.999388   -1.407153   -0.902392
H     -3.162350   -0.216371   -1.639915
H     -1.554456    1.546886   -1.060204
