30

C     -2.376959    1.826927   -0.099269
C      3.791867    0.153073   -0.193363
C     -1.839704   -1.843043   -0.236867
C     -2.678431   -0.586083   -0.038051
C     -0.604096   -1.618011    0.604577
C      1.497049   -0.512731    0.172572
C     -1.962322    0.516352   -0.748311
C      2.360407    0.657470   -0.145097
C      0.053085   -0.291817    0.277561
N     -0.556516    0.357140   -0.856695
O      2.320320    1.681757    0.758527
H     -2.010520    2.706438   -0.637410
H     -2.085911    1.856121    0.979213
H     -3.486943    1.848350   -0.108647
H      4.330092    0.435289    0.754094
H      4.331907    0.508764   -1.092557
H      3.842189   -0.958965   -0.226317
H     -2.333193   -2.746454    0.109628
H     -1.557098   -1.878394   -1.320696
H     -2.696124   -0.388989    1.070377
H     -3.691390   -0.754775   -0.420277
H      0.078016   -2.477714    0.396571
H     -0.902620   -1.690975    1.660726
H      1.693408   -1.283720   -0.618925
H      1.865271   -0.964742    1.117052
H     -2.381605    0.559797   -1.792640
H      2.137028    1.022525   -1.188906
H     -0.147756    0.378419    1.164551
H     -0.145890    1.323414   -0.903332
H      3.156440    2.164577    0.879905
