22

C      0.336289   -1.348294   -0.081367
C      2.439297   -0.235449    0.331352
C      1.015373   -0.215399   -0.041442
C     -1.093701   -1.263318   -0.463693
C      0.391220    1.072770   -0.358144
C     -1.662520   -0.062527    0.260820
C     -1.065398    1.175282   -0.416589
O      3.226594    0.274625   -0.700780
O     -1.796885   -2.426232   -0.184879
O      1.144009    2.050359   -0.569509
O     -1.168412   -0.112531    1.567363
O     -1.575406    2.281327    0.248562
H      0.773544   -2.303431    0.147708
H      2.578622    0.368242    1.273042
H      2.779854   -1.271031    0.533355
H     -1.143656   -1.015911   -1.561777
H     -2.750610   -0.041982    0.282090
H     -1.403538    1.140854   -1.472678
H      3.565633    1.190007   -0.447792
H     -2.191172   -2.760085   -1.050672
H     -1.528199    0.608420    2.132042
H     -0.870935    2.894305    0.572989
