26

C      2.432909   -0.623991    0.455977
C      0.976567   -1.122376    0.481035
C      2.183838    0.833385    0.052525
C     -0.011543    1.674103   -0.088710
C     -1.846495   -1.329935   -0.171989
C     -0.988158   -0.345502   -0.895640
C      0.457812   -0.495685   -0.765809
C     -1.332996    1.069957   -0.498665
N      0.980083    0.841608   -0.720811
O     -1.683006   -1.352478    1.184747
O     -2.201559    1.101295    0.573463
H      2.993850   -1.082305   -0.383548
H      2.914273   -0.713509    1.427929
H      1.036060   -2.212301    0.445233
H      0.553587   -0.711960    1.409819
H      2.038983    1.393442    1.019179
H      3.003939    1.250389   -0.533490
H      0.064370    2.695831   -0.539034
H      0.086612    1.745990    0.995927
H     -1.763590   -2.338480   -0.649953
H     -2.916772   -1.022720   -0.367595
H     -1.262009   -0.432983   -1.988874
H      0.917262   -1.007707   -1.629874
H     -1.778694    1.657544   -1.321149
H     -2.524047   -1.526103    1.694160
H     -2.331275    2.054490    0.815145
