24

C      2.077291   -1.531190    0.398263
C      1.637755   -0.097986    0.566656
C     -0.862486    2.152862   -0.712290
C     -1.513554    0.799502   -0.940974
C      0.503217    1.805343   -0.208181
C     -0.725011   -0.006477    0.100742
C     -1.137518   -1.377908    0.070613
N     -1.674378   -1.919399    1.109616
N      0.609898    0.326341   -0.363602
O     -0.981586   -2.173555   -1.051742
H      2.823524   -1.716060    1.222795
H      2.663144   -1.626370   -0.565204
H      1.259555   -2.260880    0.464649
H      2.559383    0.546166    0.516827
H      1.237549   -0.010302    1.605425
H     -1.462019    2.684574    0.088935
H     -0.849309    2.750334   -1.644074
H     -1.201685    0.459389   -1.953944
H     -2.574178    0.771097   -0.749438
H      1.271703    2.320779   -0.764687
H      0.599778    1.973431    0.896772
H     -0.862835    0.468122    1.100887
H     -1.815809   -1.342661    2.002345
H     -1.582431   -2.995152   -1.190389
