29

C      3.649639   -0.116815    0.314617
C     -0.677681   -2.186707   -0.323416
C      2.353892    0.521088   -0.138171
C     -1.831154    1.792544    0.010581
C     -2.834261    0.733782    0.367076
C      1.223183   -0.492741   -0.047593
C     -0.443284    1.327407    0.354568
C     -2.113420   -0.571300    0.548703
C     -0.059164    0.130388   -0.493199
N     -1.127745   -0.818265   -0.490398
H      3.374411   -1.002431    0.941116
H      4.240042   -0.512557   -0.534584
H      4.243021    0.574293    0.943946
H     -1.601216   -2.813995   -0.263598
H     -0.125476   -2.541545   -1.208349
H     -0.143293   -2.349789    0.631793
H      2.167730    1.374280    0.550543
H      2.475619    0.885093   -1.183175
H     -2.066786    2.712571    0.566032
H     -1.897106    2.015647   -1.074746
H     -3.318174    0.998035    1.328447
H     -3.652557    0.659406   -0.396033
H      1.176200   -0.828574    0.996939
H      1.464866   -1.310738   -0.756552
H     -0.411544    1.113515    1.433406
H      0.260094    2.182231    0.173434
H     -2.838694   -1.419423    0.512812
H     -1.577096   -0.558966    1.510470
H      0.089954    0.503562   -1.536502
