33

C     -3.564731   -0.876426   -1.762734
C      3.403922   -0.519076   -1.225949
C      3.800386    1.370281    0.262765
C     -2.566615    1.133980    0.109439
C     -2.286743   -0.735127   -1.436013
C      1.206969    0.885105    1.155271
C     -2.632843   -1.207499    0.904811
C      2.821346    0.792079   -0.729002
C      1.476890    0.589135   -0.104580
C     -0.206362    0.555118    1.420294
C     -0.420386   -1.774523    0.643517
C     -2.000150   -0.231989   -0.068137
C     -0.549741   -0.352216    0.293075
O     -0.905981    0.966590    2.379561
O      0.643121   -2.431806    0.615684
O     -1.665621   -2.248991    1.004016
O      0.328949    0.084256   -0.690175
H     -4.388982   -0.649474   -1.099971
H     -3.809926   -1.240712   -2.751339
H      4.496970   -0.548124   -1.161525
H      3.028458   -1.318092   -0.534498
H      3.036668   -0.767245   -2.235804
H      3.370357    2.215999    0.836137
H      4.717517    1.747831   -0.232637
H      4.125868    0.612794    1.005415
H     -3.085255    1.271050    1.078255
H     -1.826017    1.918115   -0.041980
H     -3.361765    1.279750   -0.672201
H     -1.510987   -0.980963   -2.148305
H      1.893877    1.305840    1.903811
H     -3.613343   -1.576010    0.562059
H     -2.727103   -0.747837    1.926458
H      2.771256    1.478187   -1.591020
