39

C      3.170240    1.489790   -0.609862
C      4.224144   -0.362289    0.543087
C     -1.733984    2.678244    0.278187
C     -1.616870   -0.435645   -1.751916
C     -3.261377   -0.842164    0.522659
C     -3.065380    0.603629    0.419372
C      1.359453   -1.420178    0.274829
C     -2.052519   -1.678197    0.289750
C      0.259606   -1.618372   -0.714067
C      0.607318    0.946013    0.048427
C      3.040641    0.418646    0.140853
C     -1.859094    1.208761    0.383605
C      1.696804    0.005752    0.575913
C     -0.695028    0.310466    0.455789
C     -0.998032   -0.878555   -0.438528
H      2.374595    2.124611   -0.955644
H      4.175503    1.806194   -0.941498
H      5.156309    0.233546    0.562470
H      4.102241   -0.764015    1.588319
H      4.409653   -1.230010   -0.127567
H     -1.397597    2.984766   -0.745028
H     -2.707534    3.169959    0.523037
H     -0.964002    3.008893    1.004164
H     -1.246980   -1.115182   -2.555462
H     -1.277845    0.586383   -2.042717
H     -2.714833   -0.523827   -1.753837
H     -4.076984   -1.211038   -0.165210
H     -3.656372   -1.070736    1.550385
H     -3.945394    1.236185    0.367630
H      1.074400   -2.008608    1.196454
H      2.251282   -1.983516   -0.126260
H     -2.260619   -2.642867   -0.211073
H     -1.596301   -1.951701    1.283026
H      0.044541   -2.696369   -0.774209
H      0.638263   -1.328678   -1.730335
H      0.720147    0.951155   -1.064797
H      0.714522    1.956430    0.437109
H      1.706189    0.091095    1.704728
H     -0.599106   -0.048570    1.501348
