57

C      7.613465   -1.893018    2.132413
C      6.261541   -1.194069    1.964959
C      1.710854    1.951685   -1.954552
C      0.515206    1.282790   -1.344819
C      3.026106    1.398126   -1.473720
C     -0.730949    1.938605   -1.907115
C      3.160794   -0.058867   -1.794830
C     -2.007056    1.338800   -1.363113
C      4.450488   -0.676392   -1.363596
C     -2.035875    1.501808    0.118637
C      4.613893   -0.563368    0.120054
C     -4.551435    1.541620    0.285113
C     -5.587929    0.550006   -0.176103
C     -4.332296   -2.420052    1.794696
C     -3.281073    0.933340    0.752951
C      5.921748   -1.207831    0.518365
C     -4.429792   -0.951630    1.463738
C     -5.719682   -0.629903    0.749524
N     -3.352789   -0.513335    0.592586
O     -4.390824   -3.206637    0.645386
O      6.626440   -1.697952   -0.326018
O     -6.759955   -0.486356    1.664632
H      7.557071   -2.910001    1.732488
H      7.906862   -1.875776    3.203846
H      8.386796   -1.311475    1.590669
H      6.319282   -0.166625    2.361750
H      5.486182   -1.755995    2.513248
H      1.701465    3.040905   -1.717128
H      1.708489    1.879511   -3.072356
H      0.600346    1.462600   -0.233952
H      0.517955    0.197112   -1.509773
H      3.819890    1.991722   -1.994638
H      3.169867    1.620328   -0.393548
H     -0.665812    1.893237   -3.004788
H     -0.645956    3.025300   -1.641925
H      3.022390   -0.167868   -2.892670
H      2.339875   -0.605978   -1.244867
H     -2.845805    1.827711   -1.887016
H     -2.020982    0.273865   -1.679162
H      5.273960   -0.100697   -1.850831
H      4.445391   -1.730157   -1.711105
H     -1.188696    0.907317    0.538471
H     -1.961943    2.555606    0.384235
H      3.769002   -1.041583    0.642006
H      4.646057    0.521224    0.391617
H     -4.979957    2.218514    1.081402
H     -4.343377    2.220039   -0.567214
H     -6.565378    1.082151   -0.180703
H     -5.397815    0.245522   -1.232821
H     -3.463799   -2.616276    2.424349
H     -5.237352   -2.672685    2.389195
H     -3.180378    1.106427    1.851828
H     -4.352250   -0.376216    2.397896
H     -5.970108   -1.518386    0.120720
H     -3.666436   -0.693774   -0.386186
H     -3.873741   -4.058514    0.773166
H     -7.031972   -1.404456    1.932549
