30

C     -2.781611   -1.312810   -0.456050
C     -4.383794    0.640613   -0.677438
C      2.272762   -1.636960    0.313321
C     -0.571412    0.941949   -0.194440
C     -2.020762    1.052583   -0.380197
C      0.023715   -0.399220   -0.035876
C      3.776663    0.903437   -0.176323
C     -2.933769    0.154710   -0.488120
C      2.292136    0.882939   -0.047841
C      1.555903   -0.323353    0.147463
O      4.404831   -0.287856    0.141246
O      1.844885    0.583263    1.251195
H     -2.288495   -1.734511   -1.364301
H     -3.813942   -1.808727   -0.511093
H     -2.386903   -1.665272    0.494841
H     -4.789411    0.656655    0.354895
H     -4.944752   -0.084741   -1.263615
H     -4.356540    1.652535   -1.132056
H      2.892351   -1.874868   -0.578039
H      2.897605   -1.666604    1.210370
H      1.484968   -2.439015    0.409727
H     -0.246470    1.646885    0.641023
H     -0.028317    1.418440   -1.085666
H     -2.374553    2.131720   -0.435202
H     -0.321475   -0.794630    0.965748
H     -0.122651   -1.120373   -0.825645
H      4.111848    1.171911   -1.213674
H      4.195207    1.704035    0.498090
H      1.806189    1.831636   -0.429550
H      4.805793   -0.224373    1.028771
