29

C      3.890785   -0.311237   -0.196840
C     -2.676200   -1.872342    0.042342
C      2.406498   -0.114780   -0.538312
C     -1.539531    1.336010   -0.821940
C      1.694298    0.104798    0.757509
C     -2.448468    0.621961    0.157922
C     -0.161198    1.500219   -0.207644
C     -1.866229   -0.704554    0.543151
C      0.220688    0.317119    0.622919
N     -0.479499   -0.842247    0.107920
H      4.380240   -0.962307   -0.948255
H      3.928638   -0.824555    0.786624
H      4.325833    0.687164   -0.116378
H     -2.539893   -2.734925    0.732071
H     -2.206480   -2.187348   -0.929071
H     -3.729301   -1.591324   -0.084546
H      2.345761    0.735377   -1.230414
H      2.094965   -1.062225   -1.023122
H     -1.939330    2.329856   -1.061038
H     -1.500568    0.704252   -1.741011
H      1.843732   -0.803115    1.380358
H      2.116789    0.988251    1.272716
H     -3.416602    0.461406   -0.363299
H     -2.622105    1.288885    1.034631
H     -0.217945    2.418624    0.440634
H      0.570039    1.708713   -0.996877
H     -1.849680   -0.761703    1.656504
H     -0.180735    0.490374    1.650052
H     -0.444504   -0.920349   -0.926608
