39

C     -4.743032    0.799792    0.358842
C      3.634816   -1.391367   -0.947384
C     -3.636445    0.486532   -0.330506
C     -2.615017   -2.944750    0.544337
C     -0.622363    3.077882   -0.205263
C     -3.357015   -1.828116    0.270329
C      0.743555    3.053231   -0.251772
C     -1.247114   -2.876676    0.641978
C     -1.369474    1.892966   -0.139463
C      2.953759    1.894406   -0.284448
C      3.414243    0.598930    0.399464
C      0.856477   -1.579877    0.673086
C     -2.739851   -0.564966    0.076468
C      1.447066    1.856057   -0.237747
C     -0.625056   -1.660417    0.463122
C     -0.674065    0.716482   -0.127698
C      1.437035   -0.639541   -0.288560
C     -1.381852   -0.510170    0.181636
C      0.722213    0.685312   -0.177402
N      2.809731   -0.454992   -0.288314
H     -5.404585    1.572631    0.062190
H     -4.956603    0.235595    1.247981
H      3.087023   -1.888531   -1.748868
H      4.489664   -0.856305   -1.413870
H      4.010942   -2.187641   -0.258915
H     -3.479937    0.994586   -1.261641
H     -3.098213   -3.898161    0.688599
H     -1.092935    4.050550   -0.221809
H     -4.438318   -1.840818    0.187576
H      1.344936    3.948539   -0.302337
H     -0.627975   -3.737671    0.854144
H     -2.397355    2.063691   -0.036654
H      3.316362    1.830297   -1.321771
H      3.356998    2.741121    0.281909
H      3.021882    0.653607    1.452306
H      4.500658    0.498296    0.398643
H      1.280918   -2.598134    0.662002
H      0.974117   -1.194807    1.726176
H      1.104812   -0.997566   -1.326366
