42

C      4.123336   -1.353089    0.329388
C     -0.850897    3.669887   -0.988244
C     -2.314627    1.206165    1.963774
C      1.743075    1.118574    0.787400
C      0.195816   -2.363740    0.278444
C      2.467302    0.248328   -0.095730
C      1.705640   -2.177916    0.337836
C      0.891962    2.218470    0.188079
C     -0.396689   -1.965952   -1.052120
C     -1.153248    1.338457   -1.126277
C     -2.460561   -0.769717   -0.716554
C     -2.624611   -2.991300   -1.674212
C      2.588149   -1.252962    0.211376
C     -0.183778    2.361913   -0.499054
C     -1.837197   -1.850753   -1.124863
C     -1.796500    0.392982   -0.162282
O     -3.861630   -2.850927   -1.716037
O     -2.726528    1.101915    0.663968
H      4.657368   -2.187307    0.609848
H      4.469230   -0.540678    1.065370
H      4.572663   -0.985428   -0.654105
H     -1.988716    3.472238   -1.045231
H     -0.832870    4.554835   -0.423791
H     -0.607142    3.851256   -2.054108
H     -2.170955    0.215663    2.443520
H     -3.138457    1.696893    2.521056
H     -1.423257    1.873346    2.104057
H      1.179641    0.483549    1.545338
H      2.534961    1.545500    1.493083
H     -0.356829   -1.997735    1.128155
H     -0.055898   -3.487437    0.300408
H      2.120879    0.396943   -1.172391
H      3.501598    0.709276   -0.189623
H      1.961784   -3.299442    0.580803
H      1.575369    3.121216    0.520050
H      0.186426   -1.070097   -1.378054
H     -0.099544   -2.731531   -1.848652
H     -2.083809    1.882955   -1.508596
H     -0.758149    0.912206   -2.056269
H     -3.576176   -0.748211   -0.804246
H     -2.182229   -3.891358   -2.020454
H     -0.994904    0.143014    0.563602
