42

C      5.210062   -0.141733    0.688823
C      0.827416    2.098321    1.204998
C     -1.527656    2.225167   -0.552479
C      4.168463   -0.295823   -0.112329
C     -2.367877   -2.337921    0.601534
C     -3.693419   -2.121539    0.261102
C      0.030390    0.464021   -1.418142
C      2.918210   -0.986676    0.301472
C      1.476680    0.315493   -1.122853
C     -0.046575   -1.566044    0.777694
C     -3.212870    0.097164   -0.453826
C     -0.106960    0.930169    1.044977
C     -1.453492   -1.315583    0.408815
C     -4.140588   -0.925600   -0.263508
C     -1.901472   -0.120543   -0.115849
C      0.732273   -0.330352    1.085764
C     -0.827081    0.913167   -0.283136
N      1.828304   -0.075718    0.193341
O     -5.450950   -0.687592   -0.608682
H      5.215352   -0.509110    1.695410
H      6.092870    0.369530    0.331195
H      0.429032    2.759721    2.025667
H      1.837288    1.768027    1.589580
H      1.010991    2.671362    0.297960
H     -1.941581    2.189869   -1.563851
H     -2.342797    2.346923    0.200911
H     -0.853944    3.097325   -0.406556
H      4.198525    0.092700   -1.132867
H     -2.069433   -3.281431    1.004319
H     -4.437891   -2.894889    0.397211
H     -0.067760    1.222947   -2.246524
H     -0.323470   -0.494823   -1.891967
H      3.041788   -1.210064    1.400629
H      2.781240   -1.938610   -0.213059
H      1.927667   -0.434561   -1.835302
H      2.015148    1.274608   -1.381614
H     -0.062678   -2.232853    1.676842
H      0.431171   -2.165175   -0.026951
H     -3.509812    1.046241   -0.857982
H     -0.845814    0.880041    1.872175
H      1.150391   -0.387119    2.119525
H     -6.139140   -0.309039    0.019218
