36

C     -3.968848   -0.043926   -0.764035
C     -2.847929    0.242164    1.350543
C      1.896874   -2.845699    0.633566
C      0.560553   -1.521786   -0.889580
C      2.496812    1.897880    0.470655
C     -0.819061   -1.468465   -0.334542
C      3.140653    0.560110    0.004554
C      0.207978    0.915110    0.503719
C     -2.820123   -0.006365   -0.128243
C      1.642825   -1.610069    0.158918
C      1.045987    1.855504    0.188929
C     -1.539021   -0.203674   -0.852108
C      2.395747   -0.527655    0.689081
C     -0.595683    0.876736   -0.799441
C      0.261225    2.850042   -0.615913
O      2.460828   -0.452150    1.973283
O      0.648138    3.936508   -1.118153
O     -1.046574    2.251054   -0.663800
H     -4.889253    0.098808   -0.238166
H     -3.988742   -0.219630   -1.823666
H     -3.884507    0.390527    1.700696
H     -2.423443   -0.650939    1.895226
H     -2.299104    1.174250    1.606670
H      2.618681   -3.086659    1.367566
H      1.320753   -3.693987    0.243301
H      0.845350   -0.805818   -1.644543
H      0.613188   -2.518308   -1.457447
H      2.786456    2.033493    1.519104
H      3.025027    2.691791   -0.092042
H     -1.468694   -2.334881   -0.675463
H     -0.856677   -1.542437    0.765639
H      3.142508    0.484685   -1.079945
H      4.158411    0.579532    0.408197
H     -0.107854    0.248996    1.290659
H     -1.782724   -0.457804   -1.910506
H      0.070243    0.903064   -1.682712
