38

C      0.101922    1.262927    2.112524
C      4.806834    0.407147    0.211218
C     -0.926499   -2.276124    0.078619
C     -0.717770   -1.252454   -2.124843
C      2.293675    0.103764    0.118086
C      1.163490   -0.587820    0.286443
C     -1.837645    1.609099    0.562297
C     -2.521780   -0.550782   -0.524573
C     -0.847607    0.601268    1.145708
C      3.593369   -0.410535    0.420457
C     -2.724513    0.926396   -0.421556
C     -1.092981   -0.969443   -0.683865
C     -0.121476    0.021089   -0.050549
O      3.721715   -1.571294    0.870699
O     -2.661068    1.511675   -1.705707
O      0.059950    1.034923   -1.019284
H     -0.304677    1.319405    3.128862
H      0.408667    2.253058    1.781022
H      1.028769    0.621547    2.169948
H      4.579032    1.507652    0.187286
H      5.311827    0.194253   -0.758059
H      5.480514    0.226096    1.081495
H     -0.168993   -2.919584   -0.386411
H     -1.912141   -2.823269    0.131694
H     -0.643753   -2.103521    1.140519
H     -0.934623   -0.407330   -2.795334
H      0.353326   -1.545172   -2.117374
H     -1.324264   -2.119962   -2.444382
H      2.191245    1.113054   -0.272651
H      1.283844   -1.588948    0.675556
H     -1.217084    2.348055    0.005019
H     -2.390087    2.141739    1.362348
H     -3.035093   -1.049146    0.329370
H     -3.068239   -0.900054   -1.438587
H     -1.461462   -0.180807    1.635970
H     -3.781855    1.090950   -0.089528
H     -3.206323    2.356554   -1.677994
H      0.521753    0.605594   -1.780781
