56

C     -0.196773    4.488874   -0.596342
C     -3.434284   -2.162964   -1.061278
C     -2.889706   -2.855755    1.204829
C      3.512110    0.179312    0.587990
C      3.176609    0.744716   -1.775315
C     -1.864941    3.217471    1.471210
C     -0.644858    3.261907   -0.591715
C      2.932875   -3.420838   -1.495746
C      3.256654   -2.083323   -1.268326
C      1.662867   -3.922409   -1.310969
C     -2.385874    0.687901    0.792822
C      1.636227    1.850445    1.025341
C     -4.349980   -0.496693    1.072758
C     -2.957127   -0.517473    0.631312
C      2.212614   -1.254810   -0.834602
C      1.307597    1.023777   -0.213358
C     -1.015005    1.072823    0.472931
C      0.634703   -3.104148   -0.883950
C      0.469999    2.632780    1.544424
C      0.007329    0.341897    0.023932
C      0.979163   -1.791038   -0.666977
C     -0.109603   -1.090401   -0.261559
C     -1.156331   -1.982488   -0.220989
C     -2.551186   -1.800909    0.140360
C      2.458954    0.173662   -0.543204
C     -0.768353    2.515735    0.683626
Cl     0.021943    1.923888    3.138399
N     -5.454342   -0.460606    1.418314
N     -0.667619   -3.194600   -0.604974
H      0.091220    4.983582    0.318376
H     -0.093501    5.066537   -1.518192
H     -2.976134   -2.989470   -1.618647
H     -4.416886   -2.468222   -0.638166
H     -3.573568   -1.268217   -1.708008
H     -3.932190   -2.751113    1.550516
H     -2.714188   -3.873973    0.822780
H     -2.239115   -2.728302    2.099825
H      3.826954    1.183915    0.867073
H      3.190701   -0.428235    1.452931
H      4.435971   -0.295566    0.123070
H      4.175011    0.305609   -1.841547
H      2.610468    0.528059   -2.700867
H      3.283381    1.849098   -1.689306
H     -1.982838    2.653939    2.416076
H     -1.446390    4.212408    1.787943
H     -2.775061    3.405995    0.909796
H     -0.924651    2.801281   -1.542639
H      3.743943   -4.058287   -1.831113
H      4.247334   -1.687493   -1.411586
H      1.458340   -4.957420   -1.497398
H     -2.991206    1.463767    1.198251
H      2.034997    1.147385    1.781091
H      2.434226    2.592150    0.808788
H      1.180562    1.737245   -1.100761
H      0.722022    3.690009    1.768029
H     -1.193065   -4.091417   -0.685257
