51

C      8.011076    1.856219    0.988501
C     -4.697346   -0.991481   -1.635514
C     -2.728061   -3.718935   -2.622370
C     -0.998438    2.294348   -0.963058
C     -5.479002    1.061549    3.066618
C      7.642601    1.218771    2.284598
C     -0.149564   -1.091263   -0.682477
C     -0.913399   -1.029964   -1.757014
C     -3.137650    1.110616    0.184527
C      1.748329    0.139368   -1.769289
C      3.922970   -0.561322    2.706106
C     -3.334773   -0.492520   -1.665545
C      1.190780   -0.520477   -0.640756
C      4.191070   -0.011151    1.531714
C     -2.288696   -1.641601   -1.729351
C     -2.772745    0.604295   -0.944878
C      6.229937    0.636160    2.191572
C     -4.200875    0.694360    1.013082
C      3.104554   -0.088718    0.455274
N      1.991157   -0.547520    0.380470
N      5.354560    0.557990    1.366598
O     -4.981766   -0.236643    0.857504
O     -2.434808   -2.375332   -2.884826
O     -1.628750    1.232121   -1.579004
O     -4.405773    1.460049    2.205347
S      5.499686   -0.205572    3.609192
S      3.327465    0.613844   -1.185346
H      7.558691    2.872268    0.940506
H      7.521708    1.260412    0.166012
H      9.082447    1.850039    0.764754
H     -5.498942   -0.228772   -1.634888
H     -4.909566   -1.897850   -1.016064
H     -4.877578   -1.476692   -2.699172
H     -2.828696   -4.234320   -3.597666
H     -3.697405   -3.748866   -2.085102
H     -1.916598   -4.219350   -2.071217
H     -0.135914    2.678765   -1.564678
H     -0.582984    1.979802    0.036044
H     -1.667013    3.193367   -0.824752
H     -5.978932    0.156166    2.715199
H     -5.000958    0.815578    4.038365
H     -6.153172    1.934140    3.132109
H      7.652042    2.006872    3.067655
H      8.301124    0.369855    2.556583
H     -0.533566   -1.592755    0.223956
H     -0.534594   -0.541991   -2.634258
H     -2.540425    2.003693    0.576686
H      1.258536    0.304041   -2.795777
H      3.087831   -1.101821    3.182731
H     -3.238370   -0.098185   -2.823199
H     -2.430206   -2.251588   -0.837379
