29

C     -3.416785   -1.188073    0.845900
C      2.674367   -1.095091   -1.374651
C     -1.204708    1.710779    0.659851
C     -2.536089   -0.241720    1.129902
C      0.180650   -0.988274   -0.250404
C      1.216736   -0.118139    0.289309
C     -1.011623   -0.333695   -0.826122
C      2.425598   -0.173256   -0.259293
C      3.488465    0.670594    0.241870
C     -1.841112    0.524900    0.039672
O      4.654627    0.664344   -0.235632
O      3.217215    1.527775    1.296120
O     -2.902417    0.995652   -0.778435
H     -3.623165   -1.395177   -0.193460
H     -3.943071   -1.767344    1.588644
H      2.685734   -2.138937   -0.993528
H      1.983200   -0.961863   -2.225732
H      3.689311   -0.892955   -1.770396
H     -0.954467    1.592714    1.732423
H     -0.379373    2.112576    0.038854
H     -1.965846    2.550755    0.665464
H     -2.337592   -0.043346    2.175115
H     -0.176675   -1.630081    0.613582
H      0.580952   -1.734230   -0.965625
H      1.079054    0.557716    1.097343
H     -1.699868   -1.112387   -1.270136
H     -0.664106    0.278790   -1.703649
H      3.944947    2.036388    1.771092
H     -3.163961    0.229214   -1.338081
