93

C     -6.397596    2.104231   -0.588522
C     -0.297440   -3.377556    2.893660
C      3.448449   -2.244168    0.115361
C      3.360586   -0.840571   -1.911780
C     -4.153702    0.006034   -2.208234
C     -2.448422    0.346286    1.131741
C     -7.061980    0.531732    1.876070
C     -7.677200   -1.147948    0.339145
C      9.810580    1.947451    1.089789
C      8.493753    2.298070    1.355331
C     10.074287    0.799367    0.389701
C      7.465539    1.498885    0.918885
C      9.025330    0.016131   -0.036398
C     -1.775039    2.332911   -1.155351
C     -4.588609   -1.154539    0.275116
C     -3.209645    2.019710   -1.047077
C     -3.188398   -1.531464   -0.216522
C      0.476122    1.405630   -1.651670
C      2.592752    1.749630   -0.827673
C     -0.341302   -1.128133   -1.222565
C     -6.135813    0.610934   -0.385962
C      0.288041   -3.054163    1.551660
C      7.719946    0.350600    0.218967
C     -0.772231    1.316859   -0.756567
C      1.584628    0.884005   -0.836685
C     -4.732166    0.343027    0.096318
C     -1.317469   -0.070339   -1.090105
C      3.848168    1.528199   -0.106405
C      0.728173   -1.373278   -0.220900
C      1.786405   -0.357688   -0.057915
C      4.187082    0.102939    0.207049
C      6.607590   -0.477111   -0.234461
C      3.163378   -0.850055   -0.421607
C     -3.652679    0.620847   -0.940335
C     -2.533126   -0.220978   -0.291238
N      5.479250   -0.217507   -0.035121
N     -7.052799    0.089388    0.558310
O      0.850374   -3.962435    0.920489
O      3.776481    2.236978    1.114272
O      7.004699   -1.645988   -0.950581
O      0.205794   -1.795951    1.036670
H     -6.037701    2.472733   -1.563120
H     -7.523867    2.219569   -0.665478
H     -6.017990    2.720555    0.241774
H      0.384440   -4.110093    3.372167
H     -0.263195   -2.466110    3.545767
H     -1.321968   -3.747746    2.825922
H      4.571932   -2.334336    0.193842
H      3.080789   -2.400265    1.128204
H      3.150354   -2.978447   -0.641350
H      4.255296   -1.455921   -2.208949
H      3.510960    0.133583   -2.368329
H      2.508186   -1.318319   -2.454925
H     -3.434417   -0.262864   -2.967826
H     -4.799015    0.795506   -2.697932
H     -4.748957   -0.911384   -2.007896
H     -1.464589    0.269058    1.584585
H     -3.137675   -0.213504    1.822596
H     -2.671537    1.452122    1.130290
H     -8.075048    0.883570    2.238447
H     -6.856185   -0.352921    2.551899
H     -6.275446    1.265536    2.155704
H     -8.796854   -1.123300    0.536115
H     -7.300643   -1.938676    1.037717
H     -7.639086   -1.493754   -0.734963
H     10.616966    2.591047    1.441784
H      8.266226    3.189466    1.899889
H     11.091626    0.520769    0.180046
H      6.462408    1.810787    1.148865
H      9.244916   -0.893803   -0.592305
H     -1.486192    2.693789   -2.188972
H     -1.569559    3.248761   -0.521229
H     -5.321939   -1.753104   -0.269417
H     -4.709788   -1.439511    1.361582
H     -3.700932    2.456192   -1.971108
H     -3.691130    2.600200   -0.205244
H     -3.233659   -2.092506   -1.165517
H     -2.723026   -2.159265    0.576219
H      0.573675    2.481970   -1.890304
H      0.317541    0.884675   -2.601217
H      2.500346    2.699679   -1.389682
H      0.159393   -1.112332   -2.230843
H     -0.923633   -2.101384   -1.270497
H     -6.358101    0.148810   -1.368382
H     -0.469437    1.448937    0.274501
H     -4.619306    0.913549    1.021771
H     -1.659839    0.138140   -2.163656
H      4.667760    2.044762   -0.666444
H      1.236047   -2.314399   -0.603120
H      1.865329   -0.108635    1.055623
H      3.968933   -0.025906    1.327897
H      3.397212    1.585620    1.783920
H      6.358588   -2.250872   -1.398449
