29

C     -3.356048    2.115812    0.460612
C      2.406728   -1.676788    0.465453
C     -2.117665   -1.266371    0.894438
C     -2.837257    1.051583    1.026758
C      0.257164   -0.318073   -0.647251
C      1.612961    0.310451   -0.645188
C     -0.647565    0.609483    0.131687
C      2.621131   -0.328920   -0.122321
C      3.972248    0.229362   -0.088196
C     -2.068187    0.089850    0.210251
O      4.928382   -0.382231    0.410143
O      4.173092    1.486616   -0.636259
O     -2.613453   -0.014912   -1.070748
H     -3.237055    2.321078   -0.617561
H     -3.915771    2.813673    1.060433
H      3.333987   -2.088351    0.895395
H      2.019578   -2.404138   -0.265405
H      1.702617   -1.544851    1.322821
H     -1.225465   -1.413229    1.533121
H     -3.020632   -1.385415    1.501215
H     -2.122422   -2.056759    0.126755
H     -2.963689    0.870524    2.072832
H      0.286595   -1.274387   -0.120743
H     -0.060926   -0.434781   -1.688098
H      1.781565    1.287320   -1.068256
H     -0.274999    0.782623    1.151807
H     -0.714143    1.602867   -0.380521
H      5.058753    1.957388   -0.662117
H     -2.979522   -0.939425   -1.222793
