38

C     -0.436994   -0.964364   -2.547532
C      4.733212   -0.385463    0.547903
C      0.219033    1.261111    1.880485
C     -0.620187   -1.052570    1.629218
C      2.271577   -0.021644    0.046102
C      1.269021    0.324932   -0.737993
C     -2.343922   -0.353159   -1.158038
C     -1.988352    0.808440    1.025729
C     -0.908789   -0.806307   -1.109579
C      3.650655    0.017441   -0.382567
C     -2.908438    0.003844    0.177692
C     -0.545944    0.314174    1.002570
C     -0.132794    0.326097   -0.421652
O      3.973072    0.388725   -1.540998
O     -4.040363    0.821745   -0.073783
O     -0.665863    1.505734   -0.982042
H     -0.502739    0.006169   -3.037501
H      0.556314   -1.443685   -2.608808
H     -1.156824   -1.662657   -3.031434
H      5.457907   -1.023713   -0.014482
H      4.357569   -0.965244    1.400436
H      5.237498    0.539305    0.919346
H      1.014309    1.811076    1.344759
H      0.669456    0.671945    2.732684
H     -0.406795    2.031270    2.377255
H     -1.608205   -1.522090    1.571193
H      0.112202   -1.770253    1.243635
H     -0.398635   -0.922121    2.717428
H      2.027726   -0.341205    1.034802
H      1.565616    0.644971   -1.742290
H     -2.997738   -1.052766   -1.685425
H     -2.347754    0.593051   -1.775086
H     -2.341526    0.852902    2.065540
H     -1.942564    1.843202    0.573499
H     -0.812761   -1.755694   -0.574136
H     -3.343119   -0.883295    0.712630
H     -4.610373    0.370068   -0.751332
H     -0.054488    2.271023   -0.828227
