44

C     -3.185359    2.437417   -2.228563
C      3.652409   -1.307130    0.401141
C     -2.541164   -1.256510    1.557473
C      1.347456    1.662798   -0.005623
C      0.697269   -3.257500    1.050761
C      0.680068    2.679591    0.392649
C      1.426980   -3.249059   -0.050005
C     -2.092729    1.027633   -0.488351
C     -1.870525    2.140762   -1.494038
C      2.818427   -0.346346   -0.375353
C     -1.530299   -1.981335    0.660228
C      2.356197    0.740755    0.644853
C     -0.290091   -2.271624    1.405283
C     -0.311607    3.594462   -0.229261
C      1.370999   -2.242394   -1.099004
C     -1.985212   -0.306633   -1.133365
O      3.521711    1.275542    1.075108
O     -0.104224   -1.565801    2.464364
O     -0.111825    4.892049   -0.151764
O      1.039544   -2.663023   -2.270697
O     -2.564620   -0.422622   -2.256818
O     -1.465544    3.334232   -0.905996
O      1.651176   -0.894855   -0.902068
O     -1.301551   -1.306187   -0.524283
H     -3.818123    1.541624   -2.100056
H     -2.980118    2.620314   -3.303561
H     -3.683960    3.309168   -1.751273
H      3.333887   -1.341288    1.463204
H      4.706350   -0.901635    0.432072
H      3.723261   -2.293118   -0.065271
H     -2.936306   -1.968587    2.332352
H     -2.111196   -0.419566    2.102338
H     -3.423531   -0.986764    0.944514
H      1.306982    1.197861   -1.062211
H      0.908755   -4.097289    1.754569
H      0.730458    3.148123    1.454385
H      2.131982   -4.078984   -0.205953
H     -3.163139    1.124781   -0.147543
H     -1.472585    1.140311    0.405569
H     -1.182349    1.746182   -2.260676
H      3.454967    0.169176   -1.115077
H     -2.094981   -2.924958    0.368013
H      1.911777    0.109487    1.440327
H      3.450381    2.190939    1.461301
