46

C      7.280703   -0.567774    0.201583
C     -6.272844   -0.696094   -1.304709
C     -3.151253    3.814387   -0.600942
C      3.216325    0.434015   -0.663233
C      2.757031    0.374334    1.638912
C      4.533365    0.111399   -0.410760
C      4.070082    0.050795    1.916962
C     -1.513507   -2.443624   -0.437980
C     -0.528723   -2.476881    0.681133
C      0.867543    0.921732    0.102521
C     -3.556767   -1.022286   -0.793995
C     -1.938986    1.252852   -0.430929
C      2.288336    0.574414    0.365382
C     -2.219858   -1.116680   -0.541059
C      4.969409   -0.082587    0.882865
C     -1.395805   -0.006870   -0.357292
C      0.013120   -0.292445   -0.095166
C     -4.101162    0.259576   -0.867334
C     -3.289395    1.360725   -0.686117
N      0.101256   -1.237689    0.977312
O      6.284755   -0.407834    1.177150
O     -5.454079    0.442982   -1.121212
O     -3.879284    2.612488   -0.768836
H      8.252276   -0.672922    0.729794
H      7.288849    0.277769   -0.515439
H      7.126194   -1.486430   -0.403277
H     -7.277887   -0.385489   -1.700595
H     -6.380921   -1.305319   -0.398590
H     -5.856165   -1.373952   -2.101353
H     -2.575776    4.109539   -1.477469
H     -2.450221    3.662925    0.269637
H     -3.813535    4.651486   -0.272984
H      2.919725    0.576513   -1.689601
H      2.084199    0.469436    2.477762
H      5.267253   -0.001663   -1.195956
H      4.386285   -0.094514    2.919655
H     -1.030798   -2.637510   -1.432190
H     -2.275247   -3.224022   -0.285478
H     -1.095744   -2.792147    1.605895
H      0.178731   -3.312900    0.490430
H      0.866422    1.546238   -0.816262
H      0.479500    1.591546    0.908341
H     -4.150039   -1.898970   -0.928149
H     -1.285938    2.085045   -0.286529
H      0.413642   -0.813464   -1.012558
H     -0.151065   -0.830130    1.903745
