52

C      5.304952    0.403040    0.318065
C     -3.795534   -1.263396    0.792958
C     -3.292800   -1.381773   -1.572576
C      3.697422   -1.519431   -0.897653
C      1.000716    2.068695    1.026578
C      4.258182    0.756476   -0.401745
C      0.142727   -0.985273    1.728707
C     -1.205210   -1.376443    1.161564
C      2.132511    0.194899   -1.572038
C      1.050344    1.141525   -1.206175
C     -1.712463    1.905624    0.386888
C      2.431947   -0.386800    0.863037
C      0.968326   -0.428372    0.623604
C     -1.580648   -0.476810   -0.039674
C     -0.989887    0.846854    0.189272
C     -3.175968    1.812961    0.387358
C     -3.729030    0.762935   -0.540525
C     -3.032508   -0.533649   -0.317345
C      3.097905   -0.164379   -0.486839
C      0.496139    0.937117    0.188590
O     -3.916522    2.528222    1.084458
O     -5.119112    0.649500   -0.342408
H      6.163704    1.060796    0.393967
H      5.307128   -0.536352    0.829277
H     -3.933431   -0.653296    1.686272
H     -3.400175   -2.268728    0.984614
H     -4.829389   -1.413539    0.362961
H     -4.357641   -1.323402   -1.792803
H     -2.643498   -0.931792   -2.361673
H     -2.956513   -2.402521   -1.323916
H      4.035634   -2.079810    0.010343
H      4.573715   -1.371953   -1.563016
H      2.950904   -2.108024   -1.477049
H      0.682471    2.054261    2.068002
H      0.691838    3.012505    0.485845
H      2.106749    2.102456    0.975933
H      4.221661    1.696032   -0.930355
H      0.660171   -1.864778    2.163654
H     -0.001458   -0.274459    2.580012
H     -1.977845   -1.161944    1.930409
H     -1.263074   -2.435578    0.894723
H      1.735425   -0.737524   -2.072136
H      2.741365    0.684852   -2.389589
H      1.307723    2.205208   -1.367781
H      0.185381    0.945906   -1.906630
H     -1.309842    2.905093    0.563890
H      2.725366   -1.391889    1.286760
H      2.790651    0.333509    1.606980
H      0.834047   -1.135236   -0.251740
H     -1.064121   -0.984918   -0.919903
H     -3.606280    1.156558   -1.568425
H     -5.402156    1.427044    0.177242
