92

C      9.777936    1.273238    1.493948
C      8.590606    0.341026    3.546835
C      0.312003    4.407602    0.283780
C     -0.404627    3.439951    2.503280
C     -5.772090   -0.534574    3.635410
C     -3.779085    0.573438    2.489296
C      5.509829    0.615417   -0.526411
C     -6.479985    0.292753   -2.896744
C     -4.498491    1.617230   -2.418421
C      6.690591   -0.939509    1.928231
C      7.757386   -0.155905    1.333824
C      5.287791   -0.477505    1.769007
C     -0.744223    2.157331    0.482934
C      3.832391   -1.159505   -0.048320
C     -0.696052    1.870646   -0.945967
C      3.320951   -1.072599   -1.421241
C     -4.754146   -1.463180    1.602555
C     -3.750095   -1.414884    0.530161
C     -3.648396   -3.527564   -2.489298
C     -5.024965   -1.885143   -3.572043
C      8.674233    0.463750    2.077908
C     -0.299316    3.269893    1.011291
C     -4.774535   -0.528720    2.529981
C      4.837351   -0.376977    0.347869
C     -5.069594   -3.019814   -2.533863
C      1.833015   -0.899850   -1.476510
C     -0.087908    0.549340   -1.245019
C     -2.765160   -2.573388   -2.197460
C     -4.209274   -0.750769   -3.051309
C     -0.415459   -1.729385   -1.836269
C      1.271996    0.338566   -1.205253
C      0.973312   -1.926396   -1.790880
C     -1.333615   -2.813663   -2.164436
C     -0.958184   -0.498287   -1.566175
C     -5.280064   -2.394690   -1.204629
C     -5.093583    0.207540   -2.296585
C     -4.380352   -1.299427   -0.809566
C     -3.302663   -1.232713   -1.907735
O      2.157521    1.351930   -0.892046
O      1.436961   -3.181073   -2.071177
O     -0.899601   -3.952319   -2.418629
O     -6.161887   -2.787994   -0.495838
O     -2.331110   -0.281470   -1.606738
O     -5.099654   -0.114134   -0.969522
H      9.786558    2.276270    2.002980
H     10.768043    0.756556    1.604090
H      9.621689    1.389783    0.398217
H      8.739101   -0.727102    3.853962
H      7.611975    0.699776    3.928177
H      9.395099    0.927537    4.052335
H      0.032501    5.355368    0.819581
H      1.422603    4.405108    0.299996
H     -0.121927    4.495667   -0.729642
H      0.517308    2.990755    2.922736
H     -0.431684    4.483293    2.815578
H     -1.264938    2.829077    2.861686
H     -5.303904   -0.507244    4.635171
H     -6.429930   -1.429605    3.594369
H     -6.418357    0.373379    3.581559
H     -3.942599    1.301124    3.314796
H     -3.947580    1.118379    1.514720
H     -2.741647    0.208758    2.529854
H      6.052229    1.343664    0.127352
H      6.136936    0.155977   -1.308829
H      4.802906    1.275092   -1.091216
H     -7.126885   -0.515477   -2.554633
H     -6.954341    1.268403   -2.584880
H     -6.355555    0.374138   -3.993336
H     -5.169263    2.313006   -2.944700
H     -4.294432    2.057727   -1.421091
H     -3.500210    1.557078   -2.940271
H      6.796499   -2.027758    1.629793
H      6.888805   -0.976369    3.048410
H      7.855817   -0.071731    0.259490
H      4.642594   -1.194632    2.331087
H      5.220807    0.545665    2.217569
H     -1.177919    1.398563    1.157870
H      3.411194   -1.863940    0.693967
H     -0.003856    2.617925   -1.434079
H     -1.670900    2.001414   -1.463028
H      3.804659   -0.197851   -1.922564
H      3.661154   -1.999044   -1.942523
H     -5.474238   -2.265025    1.635860
H     -3.039950   -2.280999    0.568418
H     -3.085985   -0.514881    0.653606
H     -3.402154   -4.546595   -2.675506
H     -4.439241   -2.337035   -4.426636
H     -6.047528   -1.637302   -3.865113
H     -5.782875   -3.793212   -2.791094
H     -3.609472   -0.237720   -3.829132
H      1.930608    2.295249   -0.676926
H      2.388518   -3.469423   -2.073164
