26

C      3.502414    0.267263    0.052677
C     -3.163783    0.534854    0.185100
C      1.350041   -0.724898   -1.022640
C      0.165900    0.080728   -1.458101
C      1.271332    0.470325    1.067570
C      2.035262    0.028856    0.076885
C     -2.003523   -0.278509   -0.387433
C     -0.725345    0.520608   -0.344573
C     -0.171701    0.200123    1.029627
C     -1.682433   -1.414373    0.520344
O     -2.435769   -2.412909    0.644710
O     -0.474557   -1.175143    1.158850
H      4.002138   -0.648191    0.430913
H      3.744965    1.164161    0.689397
H      3.832935    0.485445   -0.999778
H     -3.425629    0.231008    1.199698
H     -4.012990    0.420801   -0.520064
H     -2.868728    1.619396    0.118968
H      1.053868   -1.725197   -0.663319
H      2.017358   -0.842391   -1.900422
H      0.536243    0.978563   -2.015839
H     -0.400535   -0.556175   -2.197971
H      1.711682    1.020625    1.888146
H     -2.191863   -0.592449   -1.420931
H     -0.921194    1.611627   -0.368321
H     -0.746089    0.735851    1.786993
