28

C     -2.926325   -0.867751    0.458613
C     -2.196195    1.396121    0.565225
C      0.920116   -1.685719    1.043057
C     -0.120344    0.325979   -1.496121
C      1.201277   -0.265787   -1.045174
C      0.809641    0.850400    1.105407
C     -1.951339   -0.007363    0.211670
C     -0.730977   -0.544037   -0.388078
C      2.281144    0.915606    1.429898
C      0.557988   -0.412059    0.323736
O      2.765962    1.876256    2.081472
O      3.161163   -0.078596    1.024754
H     -2.864971   -1.930710    0.241985
H     -3.849248   -0.521376    0.901296
H     -1.917063    1.542590    1.630677
H     -1.695309    2.134054   -0.081289
H     -3.281052    1.620931    0.501197
H      1.494173   -2.370190    0.377601
H      1.432668   -1.485298    1.997146
H     -0.020599   -2.225607    1.301591
H     -0.220374    1.402822   -1.280172
H     -0.444901    0.015217   -2.507057
H      1.373515   -1.248628   -1.529725
H      2.065900    0.412129   -1.084255
H      0.303436    0.757330    2.087654
H      0.585541    1.760683    0.555279
H     -0.847881   -1.556470   -0.806073
H      4.114053    0.189475    0.744473
