76

C     -5.289127   -0.928513   -1.338228
C      4.620317   -0.847214   -2.112523
C      4.752662   -2.114062   -0.063453
C     -2.812382   -1.659434    0.135083
C     -0.998034    1.703446   -0.146971
C      7.594963    1.163641    0.000293
C     -5.968247    1.010880    1.693062
C     -6.829491   -0.900833    0.684893
C      3.860945    0.268264    1.913926
C      2.037034   -1.203460   -1.032162
C      0.804627   -0.345613   -1.329625
C      4.929168    1.020819    1.153866
C     -0.739940    0.151294    1.944391
C     -2.193788    0.061823    1.701452
C      1.514222    0.059618    1.628889
C     -1.947011    0.391449   -1.938579
C     -5.045725    0.174555   -0.353601
C      2.686499   -0.003832    1.019954
C      0.191598   -0.143228    1.067198
C      3.028998   -0.296174   -0.389891
C     -0.253598   -0.594401   -0.307245
C     -3.258412    1.146569   -1.655535
C      5.359558    0.335095   -0.104947
C     -3.655721    0.664857   -0.274255
C      4.457200   -0.751351   -0.582152
C     -2.588675   -0.175684    0.273037
C     -1.405093    0.315941   -0.567425
N      6.765685   -0.021005   -0.072024
N     -5.579071   -0.188748    0.976108
O     -2.975651    2.497493   -1.708439
H     -4.495127   -1.049000   -2.095902
H     -5.497832   -1.919982   -0.908180
H     -6.216804   -0.712759   -1.957222
H      4.371266   -1.854068   -2.467491
H      4.021520   -0.044356   -2.607268
H      5.674775   -0.657911   -2.341990
H      5.108214   -2.186792    0.962363
H      5.586379   -2.534832   -0.697586
H      3.886532   -2.773695   -0.275980
H     -2.045400   -2.168665    0.780048
H     -3.762951   -1.863148    0.675911
H     -2.723926   -2.066851   -0.861535
H     -0.014259    1.750657    0.370888
H     -1.779286    2.268190    0.391264
H     -0.800426    2.301738   -1.093063
H      7.089425    1.971133   -0.606426
H      8.586287    1.027204   -0.482642
H      7.657241    1.540463    1.031493
H     -6.837582    1.446908    1.186233
H     -5.167911    1.769452    1.747681
H     -6.175343    0.709783    2.738731
H     -6.709408   -1.993430    0.711389
H     -7.305782   -0.519037   -0.241678
H     -7.569529   -0.669455    1.507136
H      4.205267   -0.596062    2.472888
H      3.458291    1.005731    2.673326
H      1.797878   -2.026890   -0.327160
H      2.408403   -1.657580   -1.964148
H      1.050512    0.725500   -1.384186
H      0.411973   -0.690370   -2.301116
H      4.518432    2.054005    0.966229
H      5.795200    1.142894    1.810868
H     -0.436390    0.487723    2.926936
H     -2.738900    0.927973    2.147984
H     -2.544061   -0.812926    2.307333
H      1.596465    0.295910    2.681839
H     -1.275322    0.992685   -2.585545
H     -2.137671   -0.598702   -2.377561
H     -5.683298    1.033273   -0.660737
H      2.970836    0.702720   -0.912604
H     -0.482716   -1.670964   -0.340792
H     -4.014377    0.938316   -2.425050
H      5.310206    1.135117   -0.911329
H     -3.692185    1.609293    0.355541
H      7.058503   -0.592851   -0.874924
H     -3.520628    3.031468   -1.079508
