76

C     -6.079145   -1.703501    0.465286
C      4.874523   -1.201715   -1.366847
C      4.591009    1.200753   -1.607303
C     -2.649911    1.363753    0.036423
C     -0.946020   -1.963295    0.428419
C      7.751980    0.542209    0.834209
C     -5.922990    0.980319   -0.963277
C     -6.236153    1.404589    1.382112
C      3.666472    1.078299    2.025230
C      2.011612    0.443681   -1.235615
C      0.761765   -0.385576   -1.190260
C      4.941547    1.453472    1.301178
C     -0.741890    0.267442    2.084896
C     -2.166732   -0.058299    1.955901
C      1.451222    0.734529    1.581734
C     -2.083555   -1.029712   -1.573262
C     -5.048729   -0.581727    0.704811
C      2.660235    0.539870    1.076786
C      0.123621    0.413647    1.092396
C      2.979501   -0.098158   -0.199979
C     -0.307677    0.246409   -0.322073
C     -3.572556   -1.229986   -1.267935
C      5.372432    0.267343    0.502278
C     -3.723766   -0.931081    0.190858
C      4.407796    0.044302   -0.637065
C     -2.574717   -0.031035    0.523457
C     -1.457085   -0.740791   -0.259958
N      6.677016    0.401600   -0.084833
N     -5.516089    0.696310    0.357212
O     -3.898144   -2.587961   -1.525827
H     -6.957160   -1.547219    1.091960
H     -5.570156   -2.629453    0.848315
H     -6.263186   -1.867661   -0.596648
H      3.974353   -1.775684   -1.684532
H      5.452803   -1.887902   -0.715565
H      5.479801   -0.979716   -2.246442
H      3.931766    2.050988   -1.362348
H      4.443251    0.853524   -2.669015
H      5.657448    1.498220   -1.545718
H     -2.555773    1.492652   -1.055926
H     -1.811346    1.924816    0.557761
H     -3.543861    1.946669    0.331048
H      0.087189   -1.803313    0.827020
H     -1.560241   -2.371745    1.225854
H     -0.798389   -2.742232   -0.377964
H      8.691652    0.226250    0.288788
H      7.708525   -0.079166    1.730624
H      7.944773    1.628672    1.069822
H     -5.088040    1.437646   -1.526494
H     -6.310141    0.067520   -1.454869
H     -6.724218    1.793093   -0.995770
H     -7.324066    1.296644    1.309168
H     -5.832494    1.142074    2.372682
H     -5.974169    2.494353    1.241444
H      3.277092    1.879772    2.664639
H      3.889207    0.222495    2.730745
H      2.423268    0.483310   -2.240156
H      1.736127    1.488802   -0.959784
H      0.987941   -1.420834   -0.945561
H      0.326329   -0.396684   -2.224762
H      5.683109    1.719054    2.081553
H      4.682605    2.334972    0.668423
H     -0.354210    0.403822    3.112581
H     -2.749094    0.762955    2.471250
H     -2.468568   -1.009844    2.432941
H      1.451509    1.238361    2.563625
H     -1.930302   -0.259576   -2.348241
H     -1.666758   -1.996622   -1.936975
H     -5.035778   -0.573987    1.863048
H      2.754135   -1.187809   -0.098644
H     -0.563334    1.198356   -0.825109
H     -4.170775   -0.653910   -1.961136
H      5.362932   -0.627003    1.155145
H     -3.440774   -1.926653    0.699922
H      6.840005   -0.209459   -0.893544
H     -3.438554   -3.174238   -0.843650
