63

C     -1.733068   -1.072910   -1.872549
C     -5.355410    2.440024   -0.269887
C     -6.684288    0.142097    0.626953
C      1.295310    1.543284   -1.665048
C      4.058283   -0.583992   -1.497941
C     -2.194914   -3.147089    1.145118
C      5.493225   -0.978986    0.815153
C      0.258643   -2.045408   -0.922159
C      1.640738   -1.496005   -1.322247
C      2.789721    2.126625    0.740858
C      4.000123   -1.143184    0.841041
C      1.398581    1.605557    0.817961
C      5.916541    0.268340    0.943387
C     -1.017736    0.379357    0.950767
C     -0.679146   -0.903864   -1.087261
C     -4.566018    1.305915    0.270587
C     -5.183322    0.160821    0.720828
C     -2.495694    0.249493    0.864011
C     -0.396818    0.347519   -0.394581
C      1.955521   -0.442356   -0.266206
C      3.824476    1.198454    0.194672
C     -3.193007    1.352002    0.343604
C     -3.182350   -0.864570    1.297161
C      1.054989    0.763615   -0.411681
C      3.394942   -0.155892   -0.175808
O     -2.623726    2.392249   -0.063545
O     -2.536142   -1.968945    1.818838
O      4.931480    1.227602    1.080844
O     -4.513775   -0.850796    1.201044
H     -1.959244   -1.971095   -2.397142
H     -2.420653   -0.238535   -1.994635
H     -6.021240    2.111593   -1.117210
H     -4.687945    3.205207   -0.716745
H     -5.975389    2.929034    0.479751
H     -7.022518    0.976188    1.298269
H     -7.097621   -0.781689    1.057856
H     -7.040766    0.384394   -0.380361
H      1.401373    0.878174   -2.519225
H      2.068957    2.328130   -1.580542
H      0.342642    2.124647   -1.856825
H      5.054336   -0.049621   -1.479138
H      4.289961   -1.647165   -1.510897
H      3.529212   -0.212110   -2.371702
H     -2.243099   -3.112660    0.055512
H     -1.197049   -3.540693    1.435663
H     -2.929805   -3.967565    1.431235
H      6.170300   -1.794481    0.702994
H      0.381568   -2.311513    0.162806
H      0.022792   -2.909000   -1.555005
H      2.343286   -2.343086   -1.126071
H      1.663957   -1.127440   -2.343637
H      2.742772    3.108535    0.178361
H      3.053004    2.465465    1.789475
H      3.653833   -0.860756    1.848802
H      3.787232   -2.177654    0.566986
H      1.335031    0.947022    1.709087
H      0.708847    2.471436    0.883443
H      6.991287    0.474149    0.935094
H     -0.834985    1.316628    1.518157
H     -0.672085   -0.467939    1.606397
H     -0.933043    1.156797   -0.993632
H      1.620249   -0.911534    0.708853
H      4.217642    1.698184   -0.745600
