61

C     -1.927738    2.033407    1.387725
C     -4.221407   -3.011602    1.507978
C     -0.223477    1.835949   -3.385909
C      1.947519   -1.737263   -1.540662
C      3.273572    0.245441    0.177277
C      4.249897    0.601710    1.277381
C     -4.154507    1.341246    0.714060
C     -4.367890   -0.062037    1.276122
C      6.492334    1.214383    0.147358
C      2.203841   -0.710648    0.724694
C      7.101290    2.407448   -0.197546
C     -2.123396   -2.746947    0.231205
C      0.144601   -1.928102    0.145533
C      5.205572    2.894525    0.720523
C     -2.690981    1.295247    0.292450
C     -3.266552   -2.239732    0.665312
C     -0.962903    0.846579   -2.524177
C      5.265048    1.514090    0.742292
C     -1.126047   -2.010948   -0.620410
C     -3.607683   -0.873475    0.303711
C     -2.272384   -0.102897    0.277159
C     -0.536923    0.215505   -1.487288
C     -2.319180    0.360174   -2.883888
C      1.220288   -1.065379   -0.396488
C     -1.626630   -0.630238   -0.970688
O     -3.020384    0.788443   -3.857947
O      6.295434    3.374844    0.164552
O      0.680807    0.189506   -0.823722
O     -2.608395   -0.607233   -1.959245
H     -1.678815    1.341087    2.219243
H     -2.539233    2.845234    1.831036
H     -1.001350    2.483519    1.011566
H     -4.642326   -2.399607    2.335703
H     -3.804918   -3.948670    1.890702
H     -5.094789   -3.258979    0.846002
H      0.873769    1.678892   -3.258064
H     -0.453927    1.624038   -4.431441
H     -0.523828    2.875616   -3.139758
H      1.906346   -1.079935   -2.448802
H      2.985316   -2.017980   -1.287020
H      1.441877   -2.684297   -1.850449
H      3.826815   -0.294990   -0.590919
H      2.804409    1.184118   -0.152624
H      4.773584   -0.327990    1.616472
H      3.733311    1.044971    2.159209
H     -4.359656    2.124644    1.444880
H     -4.775380    1.415090   -0.206113
H     -5.456556   -0.282323    1.155649
H     -4.033536   -0.142110    2.317027
H      6.880270    0.216058   -0.007228
H      1.691165   -0.139097    1.524637
H      2.665817   -1.588840    1.170634
H      8.075961    2.547475   -0.684033
H     -1.859889   -3.761913    0.491461
H      0.567462   -2.955427    0.358439
H     -0.087729   -1.552098    1.183764
H      4.417247    3.553680    1.085379
H     -2.535593    1.873877   -0.632848
H     -1.049694   -2.620427   -1.546391
H     -4.099549   -0.788321   -0.688984
H     -1.670304   -0.397290    1.146413
