36

C      6.295874    0.199360   -0.340537
C     -5.555222    1.227785    0.104625
C     -4.833806    2.364727   -0.191058
C     -4.886357    0.029356    0.174700
C     -3.483460    2.283271   -0.406919
C      1.651147    0.670257    0.870117
C      2.189455   -0.563199   -1.063576
C      2.984283    0.925342    1.116292
C      3.540087   -0.334431   -0.859293
C      1.221399   -0.076942   -0.220831
C      3.921873    0.416364    0.242227
C     -3.507072   -0.100152   -0.038641
C     -2.824261    1.060313   -0.331507
C     -0.729825   -1.089897    0.765311
C     -0.225301   -0.329084   -0.450437
C     -1.926994   -1.895119    0.433815
N     -3.084521   -1.458611    0.098316
O      0.319290   -1.957336    1.134453
O     -1.818863   -3.282285    0.481755
O      5.270089    0.668118    0.481729
S     -1.066399    1.241489   -0.660122
H      6.258528   -0.881339   -0.537801
H      6.356777    0.716749   -1.310071
H      7.267257    0.389152    0.189381
H     -6.620301    1.312009    0.271784
H     -5.364787    3.327671   -0.248407
H     -5.443565   -0.879594    0.407465
H     -2.904477    3.159759   -0.638732
H      0.881834    1.055292    1.537728
H      1.879852   -1.147221   -1.919097
H      3.277371    1.520611    1.990651
H      4.287048   -0.729253   -1.539413
H     -0.883604   -0.373761    1.571630
H     -0.313768   -0.937273   -1.366194
H      0.466703   -2.630245    0.425246
H     -2.596283   -3.901881    0.269261
