28

C     -2.518029    1.210194   -1.991034
C     -2.823142   -0.049381    0.029209
C      2.884660   -0.781257    1.544480
C      0.016677   -0.806517   -0.973057
C      0.039005    1.310863    0.380436
C     -1.931054    0.611210   -0.960127
C     -0.471222    0.642257   -0.870635
C      0.633444   -1.151550    0.358418
C      1.512614    1.161850    0.519633
C      1.864324   -0.289917    0.540077
O      1.014319   -2.498651    0.370990
O      2.263620    0.560643   -0.478448
H     -3.592411    1.228196   -2.123346
H     -1.949840    1.718180   -2.763151
H     -3.151681   -1.029639   -0.383212
H     -2.358405   -0.235196    0.996068
H     -3.717132    0.604530    0.146004
H      2.326043   -1.133717    2.426562
H      3.570172    0.043371    1.821667
H      3.457078   -1.604303    1.095909
H      0.844849   -0.868994   -1.736554
H     -0.795932   -1.491094   -1.270272
H     -0.450574    0.985894    1.299215
H     -0.196649    2.400818    0.263660
H     -0.057719    1.199920   -1.729318
H     -0.098681   -1.018664    1.182885
H      2.037220    1.887440    1.163358
H      1.648448   -2.606486    1.140584
