32

C      3.510381    0.418118   -0.825034
C     -2.572545   -0.514341    1.018505
C     -2.621217    0.011437   -1.381038
C      1.648525    0.994252    0.630808
C      0.216689    0.682004    1.071081
C      1.432785   -0.817388   -1.097847
C      2.291681   -0.145076   -0.080214
C     -0.516736    0.269642   -0.174163
C      0.017034   -1.064236   -0.561753
C     -2.003696    0.349053   -0.058296
O     -0.739676   -1.775192   -1.438736
O     -2.324153    1.698761    0.192262
H      3.754026   -0.165112   -1.715029
H      3.215297    1.456958   -1.154968
H      4.370015    0.556486   -0.156702
H     -3.595449   -0.101536    1.259551
H     -2.011561   -0.463913    1.969539
H     -2.762361   -1.555903    0.676851
H     -2.959070   -1.037365   -1.464155
H     -1.930676    0.325047   -2.178695
H     -3.552708    0.631706   -1.524216
H      1.537671    1.832046   -0.115535
H      2.271844    1.290879    1.473922
H      0.317056   -0.228937    1.730923
H     -0.195218    1.542397    1.583675
H      1.914618   -1.740673   -1.428351
H      1.287733   -0.084813   -1.943968
H      2.720875   -0.906146    0.623023
H     -0.212496    0.997269   -0.975786
H      0.170378   -1.678522    0.372102
H     -0.546172   -2.749998   -1.295906
H     -2.132873    1.973098    1.102135
