57

C     -4.109193    0.732941    2.022020
C     -4.272184   -0.738014    2.025476
C      5.986146   -0.964225    1.164637
C      6.346109    0.882868   -0.252253
C      7.260307   -0.749024    1.662657
C      7.608535    1.053130    0.278669
C      0.749881    1.209480    0.568964
C      1.433126   -0.309275   -1.246517
C     -0.255545    1.500356   -0.559875
C      0.008684   -0.814214   -1.114290
C      4.188740   -0.277399   -0.402132
C     -4.131985   -2.809177    1.025641
C     -5.068445    2.159346    0.317849
C     -4.202732    2.375146   -1.902884
C     -2.716242   -3.449998   -0.738759
C      5.538282   -0.125938    0.192657
C     -4.053203    1.293975    0.620079
C     -3.609212   -1.527293    0.989839
C     -3.694374   -3.780633    0.166691
C     -5.144825    2.705775   -0.954038
C     -3.153390    1.490938   -1.618157
C      3.153560    0.490548    0.315334
C     -3.114594    0.983242   -0.365783
C     -2.614824   -1.276638    0.034320
C     -1.992351    0.057325   -0.098717
Br    -4.437566   -5.547120    0.239610
Br    -1.935671    1.028970   -3.009916
Cl    -6.435775    3.819546   -1.368508
N     -2.203754   -2.219938   -0.784835
N      1.827029    0.467281   -0.101792
N     -0.930218    0.251082   -0.975569
N      8.065985    0.230920    1.241756
O      3.490520    1.166232    1.309897
O      9.314092    0.355186    1.805033
H     -4.979076    1.230100    2.496369
H     -3.207388    1.024344    2.564101
H     -5.380407   -0.945392    1.910708
H     -4.064642   -1.144579    3.062676
H      5.340502   -1.753679    1.505541
H      6.047613    1.592142   -1.031324
H      7.626748   -1.420201    2.445097
H      8.260735    1.847480   -0.062880
H      1.083539    2.182116    0.937867
H      0.315391    0.580655    1.364879
H      1.543341    0.326747   -2.169830
H      2.110257   -1.172458   -1.318439
H     -0.958136    2.248580   -0.181278
H      0.400224    1.904620   -1.368836
H     -0.004940   -1.455507   -0.202475
H     -0.159695   -1.432547   -2.039526
H      3.922917   -1.366251   -0.280085
H      4.178917   -0.085752   -1.494519
H     -4.906681   -3.052472    1.750110
H     -5.809047    2.408857    1.087899
H     -4.235091    2.777773   -2.887755
H     -2.402453   -4.253019   -1.397602
H     -1.617541    0.293042    0.972910
