68

C     -5.503164    3.307727   -2.368256
C      6.589556    0.412201    0.159348
C      5.305584    2.229758    2.801416
C     -3.203450    1.761386    1.851699
C     -3.454479   -1.422133   -1.989870
C     -5.559490    2.406257   -1.397181
C      5.599636    1.448082   -0.327493
C      4.724316    2.769648    1.537891
C     -1.017871   -4.595783    2.528218
C      0.195345   -4.047224    2.185644
C     -2.185230   -4.219007    1.894924
C      2.764288   -1.799594   -1.819205
C      0.275788   -3.099786    1.193324
C     -2.045855   -3.269566    0.912480
C      1.436143   -2.063537   -1.618571
C      3.389780   -0.782910   -1.100759
C     -4.552598    2.347188   -0.303647
C      1.342720   -0.358803   -0.034144
C     -3.132385    0.952042   -1.549210
C     -1.811301    0.227621    0.578614
C     -3.276971    0.637678    0.841057
C     -2.418987   -0.376777   -1.664155
C     -0.854658   -2.698458    0.541574
C      0.691679   -1.331006   -0.703438
C      2.692336   -0.037613   -0.190698
C     -0.735990   -1.674198   -0.542363
C      3.278452    1.048448    0.561465
N      4.494639    1.680579    0.533119
N     -3.926290    1.053356   -0.359668
N     -1.662101   -0.634061   -0.501621
O      2.453336    1.537545    1.478393
H     -6.221630    3.365540   -3.165165
H     -4.708793    4.019087   -2.372035
H      6.057003   -0.407941    0.673008
H      7.352363    0.840241    0.834340
H      7.114516   -0.073310   -0.710548
H      4.975753    1.165797    3.013173
H      4.944766    2.793365    3.710308
H      6.417350    2.291965    2.834338
H     -2.983312    2.723649    1.316595
H     -2.321388    1.572551    2.498296
H     -4.130969    1.836384    2.458720
H     -3.021841   -2.389933   -2.318010
H     -4.069729   -1.046095   -2.852814
H     -4.151552   -1.623842   -1.170187
H     -6.386000    1.697321   -1.432462
H      6.266886    2.410989   -0.361514
H      5.373560    1.333378   -1.401039
H      5.393052    3.540630    1.102410
H      3.761483    3.263608    1.771423
H     -1.100759   -5.343003    3.304937
H      1.104873   -4.376449    2.718354
H     -3.150473   -4.652776    2.163230
H      3.342082   -2.360600   -2.521262
H      1.249732   -2.677669    0.937862
H     -2.974626   -2.971174    0.409228
H      0.997976   -2.870376   -2.207516
H      4.452434   -0.621490   -1.282144
H     -3.759243    3.102643   -0.562198
H     -4.947423    2.616241    0.668643
H      0.765546    0.208936    0.681121
H     -2.408412    1.784985   -1.553257
H     -3.771520    1.071882   -2.434919
H     -1.328514    1.242000    0.418472
H     -1.444464   -0.124310    1.554626
H     -3.843517   -0.174320    1.306469
H     -1.737520   -0.314926   -2.541379
H     -1.000468   -2.262036   -1.491214
