56

C      5.074566    0.177269    0.355448
C      5.186902    1.399460    1.035694
C      3.449407   -0.557764    1.884288
C     -0.120996   -0.045375   -1.430050
C      0.497558   -1.775113    0.033875
C      3.507994   -0.740918   -2.032240
C     -4.418195    2.299203    1.756673
C      4.214827   -0.817002    0.757258
C     -0.486577   -0.927385   -0.443888
C      2.155913   -0.847349   -1.451809
C      4.394666    1.583403    2.145057
C      1.163039    0.016846   -1.942508
C      3.518700    0.617727    2.587279
C      4.388685   -1.812325   -1.456329
C      1.806214   -1.730173   -0.470391
C     -3.968566    1.548785    0.522616
C     -5.130974    1.066252   -0.299164
C     -5.382828   -0.422672   -0.132070
C     -4.092839   -1.139322   -0.534554
C      4.117896   -2.071109    0.008485
C     -2.885233   -0.272888   -0.235788
O     -5.167412    3.425307    1.431758
O      4.461284    2.776382    2.862606
O      1.502912    0.914482   -2.934827
O      2.723022    0.824599    3.716820
O      4.232102   -3.017421   -2.171265
O     -4.844566    1.271431   -1.653633
O     -5.754255   -0.715145    1.162532
O     -4.172667   -1.321688   -1.915055
O     -1.746406   -0.984553    0.055133
O      2.771779   -2.592228    0.027814
O     -3.231965    0.446500    0.935155
H      5.741503    0.102018   -0.501262
H      5.867298    2.166096    0.703308
H      2.765342   -1.354200    2.201195
H     -0.877980    0.623637   -1.813992
H      0.277855   -2.486159    0.801717
H      3.395135   -1.020480   -3.133201
H      3.919965    0.287622   -1.956707
H     -4.969483    1.616011    2.425175
H     -3.500965    2.620088    2.292196
H      5.454505   -1.529210   -1.582480
H     -3.270732    2.191171   -0.069255
H     -6.036280    1.660949   -0.080530
H     -6.180922   -0.691415   -0.834485
H     -4.069826   -2.093719    0.001445
H      4.833080   -2.851232    0.335226
H     -2.704120    0.469106   -1.020331
H     -6.123060    3.138124    1.435184
H      5.099218    3.525358    2.571206
H      0.787079    1.531880   -3.283059
H      2.780311    1.691571    4.227616
H      4.596544   -3.756399   -1.613451
H     -5.608347    0.902049   -2.176289
H     -6.464877   -1.380818    1.156125
H     -3.475225   -1.939265   -2.260271
