68

C     -6.132976    3.585687   -0.151327
C      6.520065    0.019819    1.548622
C      5.272570    3.223916   -1.199777
C     -2.926853    1.198791    2.145680
C     -2.951376    0.134375   -2.419867
C     -5.202126    2.887951    0.501040
C      5.629405    1.199691    1.279379
C      5.653647    1.763766   -1.108215
C     -0.824853   -4.949943   -2.220480
C     -0.382260   -3.747366   -2.750055
C     -1.267394   -4.972988   -0.922975
C      1.981577   -1.177718    2.636904
C     -0.387021   -2.599208   -1.988261
C     -1.266947   -3.829859   -0.179923
C      0.770506   -1.446983    2.069956
C      2.953961   -0.516116    1.872338
C     -5.134446    1.424365    0.428318
C      1.436719   -0.449444    0.057062
C     -3.779946   -0.451199   -0.202512
C     -1.448506    0.932174    0.191392
C     -2.752498    1.446707    0.641108
C     -2.625382   -0.659576   -1.191801
C     -0.832242   -2.598666   -0.667460
C      0.461554   -1.094810    0.772754
C      2.711556   -0.138607    0.580219
C     -0.855237   -1.397527    0.182981
C      3.663554    0.569090   -0.236423
N      4.906034    1.128045    0.040272
N     -3.884091    1.014612   -0.108381
N     -1.409229   -0.279754   -0.546225
O      3.302791    0.728178   -1.495449
H     -6.877656    3.095632   -0.762368
H     -6.162156    4.664710   -0.081880
H      6.565453   -0.121780    2.652252
H      6.059162   -0.881094    1.090184
H      7.555293    0.161929    1.171894
H      4.542123    3.432393   -2.000277
H      4.855349    3.598788   -0.229447
H      6.202360    3.804946   -1.420005
H     -3.863274    1.599259    2.531167
H     -2.104769    1.797452    2.624012
H     -2.729763    0.148790    2.405220
H     -4.066031    0.091530   -2.587956
H     -2.696965    1.192016   -2.314521
H     -2.483179   -0.346533   -3.309084
H     -4.465568    3.437639    1.112913
H      6.366076    2.080546    1.222964
H      4.956511    1.495521    2.094536
H      5.303977    1.270965   -2.035569
H      6.734761    1.598805   -0.982752
H     -0.826974   -5.867437   -2.811679
H     -0.042406   -3.772406   -3.774357
H     -1.623923   -5.905031   -0.472473
H      2.162331   -1.477766    3.653257
H     -0.041582   -1.678813   -2.413425
H     -1.621703   -3.870685    0.845595
H      0.023563   -1.958883    2.667391
H      3.878342   -0.363013    2.387145
H     -5.929495    1.083620   -0.299065
H     -5.404783    0.922150    1.380724
H      1.270883   -0.141035   -0.962524
H     -4.715733   -0.881366   -0.562785
H     -3.457773   -0.883139    0.752472
H     -0.880977    1.701732   -0.413341
H     -0.787257    0.788483    1.097973
H     -2.716646    2.573998    0.554609
H     -2.608225   -1.734486   -1.399074
H     -1.569906   -1.604840    1.029380
