46

C     -2.752029    2.803743    2.057557
C      2.714342    0.330200   -2.749896
C     -3.440433   -1.462153   -0.666778
C      2.207061    0.710465    0.956210
C      0.194395   -2.205104   -1.334179
C      1.726096    1.123589    2.071184
C      1.312682   -2.646214   -0.903656
C     -1.773551    0.658154    1.489684
C     -1.610830    1.829679    2.401966
C      3.151584    0.217735   -1.332354
C     -1.948560   -1.454001   -0.422873
C      2.184118    1.058022   -0.485521
C     -1.255477   -2.580765   -1.220889
C      0.860292    2.192944    2.585950
C      2.738430   -2.237998   -1.044616
C     -1.445004    0.888004    0.086946
O      2.495097    2.349021   -0.845793
O     -1.679666   -3.726407   -0.697098
O      1.374485    3.006102    3.489675
O      3.578330   -3.183102   -1.433598
O     -1.246774    1.997503   -0.459846
O     -0.424673    2.524418    2.301959
O      3.360484   -1.055383   -0.843310
O     -1.337862   -0.239525   -0.739759
H     -2.793146    2.926414    0.977388
H     -2.508319    3.749504    2.583317
H     -3.698985    2.380756    2.484235
H      3.015921   -0.590176   -3.307714
H      1.622873    0.447170   -2.782767
H      3.228028    1.178703   -3.274203
H     -3.756135   -2.390536   -1.173919
H     -4.033014   -1.387954    0.274520
H     -3.740271   -0.621608   -1.299075
H      2.893662   -0.239381    0.950072
H      0.049068   -1.259849   -2.002129
H      1.994835    0.564893    3.067966
H      1.445649   -3.576159   -0.218864
H     -1.107435   -0.160561    1.881050
H     -2.827875    0.268224    1.514873
H     -1.869481    1.483353    3.427734
H      4.142278    0.758940   -1.255122
H     -1.788050   -1.723561    0.646921
H      1.186516    0.831327   -0.970202
H     -1.756385   -2.513624   -2.254921
H      2.816862    2.872392   -0.057644
H     -1.499133   -3.897194    0.252170
