53

C      0.485400    1.302622   -2.935223
C     -4.088686    0.325437   -1.317787
C     -3.807392    0.414186    1.093174
C     -0.474727    0.443103    1.598518
C     -2.035710   -2.098400    0.710403
C     -0.523699    2.489997   -1.018646
C      2.357202   -0.330615    0.881429
C      1.818732    0.657646   -0.077420
C     -1.822269    2.012166   -0.415453
C     -3.103032   -1.585185   -0.236550
C     -0.707769   -1.585171    0.284622
C      4.386840   -0.810303   -0.399619
C      3.903777   -1.946530    1.796260
C      0.185951    1.351758   -1.663835
C      3.498309   -0.982033    0.739042
C      0.546172    0.223646   -0.712521
C     -1.836370    0.492470   -0.496578
C      5.747811   -0.304786    0.023667
C     -3.149119   -0.086060   -0.163272
C     -0.617954   -0.058931    0.212218
O      4.979829   -2.589008    1.704619
O      6.594171   -0.119521   -0.864643
O      6.002635   -0.070723    1.346335
H      1.002322    0.436455   -3.319333
H      0.234309    2.098409   -3.617746
H     -4.971020   -0.338148   -1.259844
H     -3.536589    0.127074   -2.260919
H     -4.396472    1.374689   -1.225595
H     -3.706347    1.488379    1.216731
H     -3.543780   -0.204906    1.975763
H     -4.920725    0.234926    0.978081
H     -0.470377   -0.407152    2.310092
H     -1.463849    0.957809    1.851703
H      0.285467    1.211310    1.783008
H     -2.332173   -1.826665    1.728165
H     -2.028679   -3.184511    0.632088
H     -0.681834    3.286056   -1.772835
H      0.148894    2.844761   -0.188422
H      1.814693   -0.574926    1.806379
H      1.693790    1.669777    0.439895
H      2.615323    0.884522   -0.813675
H     -2.022789    2.418946    0.569550
H     -2.641045    2.404680   -1.085089
H     -2.814609   -1.858184   -1.278084
H     -4.077289   -2.049414    0.005432
H      0.042720   -1.914346    1.028525
H     -0.447586   -2.040565   -0.693657
H      4.003447   -0.304231   -1.286747
H      4.649166   -1.857766   -0.795968
H      3.307848   -2.133084    2.666668
H      0.764463   -0.642403   -1.374760
H     -1.662089    0.268635   -1.580030
H      6.814707    0.484108    1.646508
