45

C     -3.918522    1.710073    1.149566
C      6.235492    0.975005    0.983432
C      4.878307    0.951298    1.226450
C      6.705669    0.918004   -0.315233
C      4.011643    0.870384    0.156753
C      5.828314    0.837300   -1.375393
C     -1.732531    0.599848   -0.637015
C     -0.401545    0.650654   -1.069088
C     -5.900622    0.274684    0.856914
C     -1.374012   -1.608748    0.094671
C      3.518912    0.723447   -2.312079
C      2.029996   -2.635493   -0.569781
C     -4.521110    0.526432    0.378359
C      4.466701    0.812787   -1.144858
C     -2.225229   -0.534144   -0.051018
C      0.408266   -0.450785   -0.900012
C     -0.075920   -1.599580   -0.311642
C     -6.177638   -1.069344    1.370909
C     -3.638393   -0.637281    0.445647
C      1.737573   -0.452092   -1.311863
N      2.150512    0.634863   -1.853680
N      0.750845   -2.670960   -0.159470
N      2.542074   -1.518614   -1.154606
N     -5.301008   -2.010947    1.391031
N     -4.030671   -1.754437    0.911315
O     -7.484991   -1.297628    1.858402
H     -2.932208    1.409963    1.483142
H     -3.980727    2.590298    0.495795
H     -4.593022    1.911602    2.016784
H      6.931911    1.037497    1.795929
H      4.560102    0.998120    2.258894
H      7.784287    0.936372   -0.517445
H      2.959015    0.854234    0.375672
H      6.180459    0.791499   -2.405937
H     -2.351723    1.463483   -0.788279
H      0.002704    1.524307   -1.527706
H     -6.064200    0.963170    1.757854
H     -6.672936    0.580641    0.084735
H     -1.761454   -2.507319    0.557595
H      3.790792   -0.119874   -2.965428
H      3.694975    1.662088   -2.893314
H      2.702924   -3.471456   -0.459684
H     -4.515683    0.847869   -0.719294
H      3.530428   -1.473379   -1.477860
H     -7.747756   -2.243843    2.107774
