58

C      4.478128   -2.038604   -3.350053
C      4.318212   -1.475927    2.176313
C     -5.736166   -1.412986   -0.387431
C     -2.042457   -4.048963    0.751205
C     -0.007237   -1.251182    3.095973
C      1.409903    0.123070   -1.507571
C      2.414842   -0.587300   -2.142707
C     -2.145936    2.076711   -0.829442
C      2.319069   -0.293492    0.649029
C     -3.345565    0.048618   -0.270750
C     -1.142418    4.190903   -1.473580
C      0.581563    3.494991    0.879475
C      1.356375    0.271012   -0.141889
C     -2.163564    0.767238   -0.211225
C     -1.073578    2.817704   -0.790356
C      0.150781    2.422217   -0.128679
C      3.382613   -1.154401   -1.339092
C      3.323903   -1.002695    0.029086
C     -3.422095   -1.186169    0.319270
C      0.226493    1.070955    0.452822
C     -1.025739    0.306330    0.421228
C     -2.300496   -1.669790    0.958457
C     -1.112309   -0.940290    1.014446
O     -0.187603    4.252881   -2.473773
O     -0.415726    3.648564    1.816160
O      4.417898   -1.882669   -1.948105
O      4.323602   -1.594729    0.783974
O     -4.597351   -1.921780    0.270429
O     -2.384372   -2.903214    1.545702
O     -0.060413   -1.542138    1.689481
H      4.647711   -1.079057   -3.871961
H      5.256975   -2.759365   -3.640764
H      3.473946   -2.390705   -3.671037
H      5.164647   -2.031173    2.618288
H      4.319616   -0.403384    2.431691
H      3.359105   -1.905290    2.578062
H     -5.970651   -0.405139    0.013884
H     -6.609738   -2.060610   -0.196966
H     -5.567607   -1.345801   -1.483135
H     -1.129472   -3.791515    0.158016
H     -1.896322   -4.942027    1.360502
H     -2.837236   -4.237286   -0.008628
H     -0.604032   -2.016401    3.627389
H      1.037889   -1.280481    3.463767
H     -0.429200   -0.246599    3.300207
H      0.646798    0.568407   -2.163080
H      2.438399   -0.692086   -3.225758
H     -3.041735    2.470959   -1.345226
H      2.311524   -0.190838    1.745985
H     -4.220668    0.442266   -0.777457
H     -1.061945    4.989797   -0.719440
H     -2.128400    4.286387   -1.957845
H      0.800329    4.424450    0.308946
H      1.501311    3.189971    1.380683
H      0.974574    2.471068   -0.923023
H      0.494000    1.128463    1.563764
H     -0.382900    5.043764   -3.016724
H     -0.087274    4.177360    2.591460
