53

C      0.887514   -2.441615   -1.960729
C     -4.304794    0.118267   -0.344920
C     -3.129322    2.245227   -0.254687
C     -0.813416   -1.443270    1.105710
C     -1.691464    0.943975    2.212885
C     -1.198357   -1.325962   -2.364130
C      2.507240   -0.032206    0.885778
C      1.809165   -0.754640   -0.116268
C     -2.301823   -1.151021   -1.297917
C     -3.031082    0.698067    1.618001
C     -0.592463    1.061833    1.168866
C      4.268115    0.788795   -0.529613
C      4.188045    1.367108    1.937095
C      0.121487   -1.412061   -1.643521
C      3.612055    0.678057    0.770701
C      0.485741   -0.357807   -0.625689
C     -1.890939    0.097447   -0.568604
C      5.639735    0.215412   -0.438683
C     -3.000706    0.776129    0.139931
C     -0.649347   -0.177964    0.301335
O      5.223340    2.028237    1.793897
O      6.629726    0.884810   -0.063998
O      5.878175   -1.115867   -0.774245
H      0.500210   -3.150757   -2.724071
H      1.858528   -2.679384   -1.556182
H     -4.578063    0.432423   -1.350572
H     -4.307216   -0.961429   -0.154231
H     -5.096582    0.541076    0.339496
H     -4.159059    2.508842   -0.587715
H     -2.469082    2.487771   -1.107833
H     -2.950323    2.917665    0.632841
H     -0.342454   -2.297598    0.543191
H     -0.296910   -1.324889    2.085058
H     -1.841296   -1.736156    1.297008
H     -1.422218    0.156893    2.915880
H     -1.643399    1.909317    2.794775
H     -1.169463   -0.496508   -3.065306
H     -1.443916   -2.245076   -2.886333
H      2.118557   -0.069082    1.923105
H      1.658146   -1.843272    0.244543
H      2.453421   -0.911331   -1.006373
H     -3.218413   -0.988382   -1.873311
H     -2.302767   -2.048831   -0.664345
H     -3.546257   -0.222792    2.021021
H     -3.707283    1.531146    1.979326
H     -0.771781    1.935009    0.489492
H      0.313110    1.263325    1.697198
H      4.465114    1.910371   -0.666581
H      3.778597    0.376606   -1.394932
H      3.716306    1.295041    2.891384
H      0.520425    0.588234   -1.252279
H     -1.539258    0.818270   -1.367722
H      6.776700   -1.387454   -1.147728
