21

C      2.838896    0.185033   -0.408931
C      2.431796   -1.118679   -0.598508
C     -1.677330    1.540877    0.536465
C      1.896639    1.142442   -0.094025
C     -0.420060    1.891374    0.400605
C      1.103840   -1.426947   -0.469427
C     -2.210361    0.199163    0.364413
C      0.543410    0.840586    0.040273
C      0.137317   -0.439945   -0.145910
C     -1.260708   -0.831802   -0.046756
O     -1.397355   -2.027545    0.711727
H      3.867210    0.454221   -0.503442
H      3.159054   -1.902738   -0.849765
H     -2.394323    2.341297    0.806431
H      2.175288    2.191319    0.065421
H     -0.062819    2.899577    0.538454
H      0.783368   -2.453253   -0.618672
H     -2.635559   -0.161059    1.382738
H     -3.120258    0.256197   -0.326376
H     -1.548045   -1.121399   -1.130539
H     -2.209998   -2.458719    0.345823
