95

C     -7.655339   -1.135949   -3.124423
C     -9.831129   -0.568910   -1.436489
C     -2.775298   -1.487112    0.401962
C      1.668430   -1.083609    1.174994
C     -6.470036    1.097704    0.515911
C      1.447379    0.312602   -2.077399
C      0.024107    0.707951   -2.151962
C     -0.706861    0.169657    1.560281
C     -4.230414    0.999061   -1.406351
C     -2.144936    0.545868    1.532336
C     -2.982414    0.349291   -2.001224
C     -6.206983   -1.698188   -1.037333
C      3.534034   -0.319523   -1.012097
C      3.658634    1.562940    0.660348
C      9.039589    2.075367    1.609056
C     -7.469822   -1.260532   -1.646316
C     -8.508434   -0.985182   -0.901995
C      2.109515    0.068090   -0.985384
C      4.393988    0.588810   -0.179125
C      0.016815    0.568200    0.281107
C     -0.685939    0.066809   -0.964813
C      8.452646    0.914781    0.863850
C     -4.166226    0.607376    0.045642
C      2.280843    1.238647    1.030261
C     -5.893700   -1.267965    0.328681
C      9.353069   -0.275389    0.769081
C      8.532408   -1.567992    0.760946
C      7.215386   -1.377114    0.013090
C     -8.332097   -1.064723    0.542830
C      6.528844   -0.106607    0.380968
C     -2.836318   -0.017354    0.278445
C      1.464561    0.172311    0.334429
C     -5.363066    0.034667    0.642530
C     -2.061135    0.570268   -0.866414
O     10.227764    2.436491    1.017282
O      1.772581    1.861576    1.943969
O     10.107661   -0.260842   -0.402028
O      8.354562   -2.074064    2.027678
O      7.537614   -1.425926   -1.358740
O     -9.284955   -0.817421    1.314544
O     -5.118255    0.030451    2.050613
O     -1.994123    1.959055   -0.626312
O      5.188492   -0.205833    0.642171
O      7.229622    0.508176    1.435361
O     -7.113449   -1.414429    1.094182
H     -6.752746   -1.468189   -3.681536
H     -7.825777   -0.070355   -3.414028
H     -8.488061   -1.794130   -3.484314
H    -10.623064   -0.628110   -0.659829
H    -10.170470   -1.237735   -2.261700
H     -9.819985    0.483743   -1.779998
H     -1.679220   -1.773162    0.370517
H     -3.234616   -2.070912   -0.388896
H     -3.048183   -1.761796    1.443167
H      1.087258   -1.936249    0.807938
H      2.746182   -1.328977    1.126211
H      1.464821   -0.800374    2.227007
H     -7.245377    0.996016    1.272485
H     -5.925312    2.053274    0.811693
H     -6.776936    1.273224   -0.510740
H      1.996616    0.216164   -3.033718
H     -0.000377    1.821611   -2.070262
H     -0.462190    0.372358   -3.091831
H     -0.223058    0.746266    2.376419
H     -0.527484   -0.898325    1.806601
H     -4.085416    2.090957   -1.592205
H     -5.146546    0.725517   -1.918004
H     -2.221890    1.646832    1.451333
H     -2.659761    0.133860    2.420332
H     -3.143259   -0.713172   -2.253521
H     -2.647534    0.939243   -2.894797
H     -5.345953   -1.649721   -1.750857
H     -6.349654   -2.835359   -0.983239
H      3.638913   -1.400876   -0.697530
H      3.869829   -0.322929   -2.069920
H      3.624230    2.544060    0.098962
H      4.214762    1.812178    1.599258
H      8.320424    2.929193    1.489525
H      9.163183    1.890311    2.697470
H      5.090238    1.121069   -0.866813
H     -0.039694    1.674380    0.241454
H     -0.565281   -1.018509   -1.130887
H      8.206139    1.274666   -0.160273
H     -4.067110    1.619519    0.579326
H     -5.301617   -2.134078    0.797146
H     10.022425   -0.295396    1.665194
H      9.103683   -2.322351    0.172710
H      6.618818   -2.289478    0.212442
H      6.648313    0.619705   -0.476201
H     10.453018    3.351825    1.342938
H     11.035294   -0.505952   -0.157925
H      8.772972   -1.442803    2.668883
H      7.728351   -0.504916   -1.706436
H     -5.814291   -0.531532    2.508564
H     -1.922221    2.367930   -1.526054
