79

C      6.272124   -0.735813   -1.305482
C     -4.329840    1.521768   -2.902462
C     -5.140332   -4.418328    1.478900
C     -0.337167    6.548304    1.973743
C      2.339143   -4.038051   -0.608758
C      1.914458   -3.362240    1.615408
C     -3.795560   -1.190672   -0.620946
C      0.961449   -4.362532   -0.763084
C      0.516443   -3.702012    1.431401
C     -4.267536   -2.270494    0.088484
C      5.510013    0.601465    0.987798
C     -4.002876    3.703579    0.016874
C      6.133026   -0.744123    1.033687
C     -4.430628    3.172989   -1.290368
C      4.189393   -2.928930    0.708868
C     -2.271325    0.229643   -1.754586
C     -1.618030   -2.171797   -0.981285
C      3.403274    1.700138    0.927689
C     -1.813249    4.493431    0.753305
C      2.078815   -0.496586   -0.307273
C      2.794933   -3.529262    0.584512
C     -2.490323   -1.103976   -1.161175
C      4.070343    0.500420    0.610470
C     -2.543901    3.464001    0.141266
C      0.092651   -4.172536    0.262274
C      3.421269   -0.581918    0.003355
C      4.345413   -1.719023   -0.230729
C     -2.933843    1.316680   -0.891944
C     -3.373234   -3.312251    0.260307
C     -2.096967   -3.232664   -0.267489
C      2.067976    1.750217    0.604156
C      1.407623    0.704197    0.007031
C     -0.497065    4.305984    1.003715
C     -2.004638    2.248844   -0.236862
C      0.090840    3.106238    0.652265
C     -0.632931    2.061467    0.033949
N      5.724605   -1.391910   -0.162568
N     -3.976432    1.902853   -1.592421
O     -3.828289   -4.411949    0.976195
O      0.232187    5.318968    1.606130
O     -1.340028   -4.438118    0.073766
O      1.425737    2.955492    0.933116
O      0.056100    0.933335   -0.250472
H      5.499755   -0.162555   -1.872539
H      7.031135    0.018738   -0.972826
H      6.841093   -1.431034   -1.972271
H     -3.598044    1.865945   -3.649530
H     -5.263601    2.129636   -3.167836
H     -4.689568    0.478980   -3.039914
H     -5.383623   -5.364926    2.010874
H     -5.862200   -4.351302    0.610372
H     -5.273882   -3.525637    2.109037
H      0.515261    7.214716    2.270267
H     -1.082972    6.420002    2.768395
H     -0.864241    6.990920    1.095823
H      2.860635   -4.318070   -1.576571
H      1.978017   -3.026847    2.681616
H     -4.537377   -0.387931   -0.782095
H      0.740510   -4.788134   -1.792733
H     -0.009012   -3.517500    2.416558
H     -5.268225   -2.295303    0.480764
H      6.044484    1.297373    0.276056
H      5.597848    1.074144    2.008464
H     -4.563734    3.299025    0.887424
H     -4.214537    4.801493    0.036288
H      7.258012   -0.621174    0.954201
H      5.874611   -1.216130    1.980507
H     -5.553966    3.309543   -1.351844
H     -4.067615    3.902562   -2.084253
H      5.014756   -3.612510    0.421533
H      4.444376   -2.447373    1.662397
H     -1.285503    0.645917   -1.923826
H     -2.748108    0.326354   -2.768555
H     -0.614632   -2.151695   -1.513538
H      3.898276    2.539020    1.397346
H     -2.352938    5.417250    1.004053
H      1.437440   -1.299627   -0.780377
H      4.261854   -2.198069   -1.267605
H     -3.387908    0.759374    0.003579
