89

C     -0.890638    2.098552   -2.480519
C     -0.092887    0.096480   -3.606243
C     -6.177615   -4.656159   -1.033108
C     -4.619939    5.039741    0.729794
C      4.990394    5.155487    2.475867
C      5.239309   -5.482205   -1.191968
C     -5.237088   -4.598482   -2.035308
C     -4.977238    4.291168   -0.367740
C      4.176747    4.713952    3.495201
C      5.110156   -5.357422    0.185005
C     -5.964649   -3.892330    0.095963
C     -3.696267    4.528242    1.607246
C      5.089673    4.540672    1.250741
C      4.682930   -4.499569   -1.976819
C     -4.097187   -3.805711   -1.944331
C     -4.416764    3.026715   -0.599479
C      3.427407    3.587732    3.249891
C      4.444919   -4.281101    0.732568
C     -4.646403   -2.341435    1.345362
C     -2.221530    2.782597    2.266111
C      4.363516    2.729332   -0.172471
C      3.452403   -2.429459   -2.185514
C     -3.526346   -1.538267    1.476977
C     -1.663338    1.540079    2.050589
C      3.601619    1.609352   -0.380141
C      2.783733   -1.349326   -1.635108
C     -2.790973   -2.234586   -0.644429
C     -2.926893    1.301287    0.096582
C      2.715691    1.784958    1.809789
C      3.215937   -2.211283    0.492840
C     -4.826283   -3.095471    0.196166
C     -3.154922    3.290111    1.370031
C      4.306887    3.401094    1.054675
C      4.016573   -3.422513   -1.413048
C     -3.901052   -3.049823   -0.809810
C     -3.493698    2.525364    0.285468
C      3.480877    2.924190    2.042682
C      3.881534   -3.287133   -0.047855
C     -2.585574   -1.486247    0.463973
C     -1.990585    0.754888    0.965879
C      2.776142    1.128612    0.600172
C      2.639093   -1.197662   -0.271973
C     -0.417598   -0.607566   -0.407014
C      0.670470    0.366399   -0.258862
C     -0.301168    0.705071   -2.233184
C     -1.415806   -0.590569    0.710797
C      1.941171   -0.070466    0.375136
O     -0.894977   -1.043834    1.935442
O      1.620818   -0.549130    1.678384
O     -1.131496   -0.111860   -1.528499
O      0.862809    0.885312   -1.534767
H     -1.871614    2.045283   -2.955756
H     -0.151850    2.629647   -3.139135
H     -0.890129    2.646222   -1.519370
H      0.867779    0.436729   -4.044132
H     -0.056287   -1.011536   -3.547175
H     -0.939542    0.381350   -4.262839
H     -7.063928   -5.293687   -1.142658
H     -5.079715    6.013048    0.868712
H      5.587890    6.053922    2.672959
H      5.765879   -6.336244   -1.598348
H     -5.383092   -5.189536   -2.931081
H     -5.690954    4.660260   -1.066871
H      4.123879    5.232036    4.461485
H      5.542907   -6.123413    0.816478
H     -6.667734   -3.902470    0.904958
H     -3.411295    5.110153    2.470629
H      5.731822    4.894006    0.454020
H      4.785782   -4.601288   -3.045984
H     -3.352419   -3.745838   -2.712088
H     -4.685268    2.425457   -1.455507
H      2.763714    3.182902    4.007729
H      4.331652   -4.163252    1.814148
H     -5.394580   -2.397965    2.123624
H     -1.947225    3.380873    3.127538
H      5.007029    3.106433   -0.933395
H      3.545185   -2.513948   -3.259886
H     -3.438975   -0.972908    2.394529
H     -0.938765    1.156612    2.754556
H      3.632427    1.081312   -1.311910
H      2.376170   -0.630587   -2.316608
H     -2.083376   -2.213595   -1.431599
H     -3.188593    0.684930   -0.761919
H      2.069201    1.454181    2.637980
H      3.158285   -2.189018    1.584928
H     -0.122246   -1.635011   -0.642070
H      0.289883    1.226200    0.361262
H     -1.022733   -2.005214    2.046754
H      2.368938   -0.493828    2.294899
