177

C      0.350184    1.914619   -2.553999
C      5.243336   -1.523892    0.170426
C     11.668066    2.484239    0.922844
C     -9.795205    4.223342    2.332415
C     -5.018297   -1.371836    0.022567
C    -10.050947   -0.580742    2.582507
C      1.659158   -2.903873   -1.637830
C      6.370442    3.670579    0.328522
C     10.464163    0.122997   -3.653562
C    -13.086064   -6.878330   -2.678202
C    -12.021892   -6.797771   -1.800880
C    -13.641847   -5.711745   -3.188381
C    -13.381323    2.305225   -2.527140
C    -11.548783   -5.556738   -1.462852
C    -13.151021   -4.483594   -2.834668
C    -12.408134    2.466460   -1.548335
C    -11.553123   -3.078345   -1.571114
C     -4.391979   -1.333530    2.862527
C     -5.570632   -0.654803    3.592235
C    -10.568338   -2.874907   -0.750334
C     -3.110867    1.710064    0.543011
C     -4.247614    0.946082   -0.109553
C     -8.944384    2.072498    3.847594
C     -7.548915    1.494360    3.798669
C    -13.081633    2.570812   -3.852772
C     -2.476991   -0.497860    1.458292
C     -7.228731    0.312715    0.306437
C      1.150920   -0.269903    0.453955
C      5.196166    1.666209   -2.027631
C    -10.872633    3.143433   -3.192264
C     14.619780   -2.889950   -0.282376
C      1.402129    1.745395   -1.447225
C      5.975193   -0.833091   -0.974859
C     11.028004    1.176025    0.525197
C     -9.471198    2.906577    1.553787
C    -12.087169   -4.405149   -1.957966
C    -11.136943    2.889064   -1.870564
C     -3.873159   -0.273837    1.934935
C     -1.963087    0.864779    0.974380
C     -6.613483   -0.387113    2.540681
C     -6.163801    0.409720    1.370138
C      1.401613   -0.708564   -0.981032
C      5.930379    1.656745   -0.705156
C     15.455334   -1.745052   -0.831790
C     -8.612133    0.068329    0.767219
C    -10.082735   -1.531963   -0.404719
C      0.251047    0.953095    0.432057
C      4.346296    0.430685   -2.093838
C     16.443301   -1.330159    0.223353
C     15.914958   -0.373550    1.225755
C     14.968200    0.660937    0.680261
C      9.829488   -0.856872   -0.523880
C      2.116123    0.446675   -1.645657
C      6.683239    0.397727   -0.467429
C     11.837161    0.505797   -0.552735
C     10.912089   -0.312152   -1.435397
C    -10.125259    3.051894   -0.857801
C     14.124826    0.183545   -0.456089
C      8.967403    0.319184   -0.040794
C     -4.849862   -0.105109    0.792063
C     -8.958116    0.446020    2.169221
C     -9.552481    1.750004    2.457987
C     -7.834034    0.172095    3.141220
N    -11.840008    2.981417   -4.149518
O     13.871505   -2.454606    0.787428
O    -10.657620   -0.567335   -0.941527
O     17.619974   -0.857433   -0.367337
O     15.357318   -1.014939    2.342801
O     15.753655    1.766622    0.274519
O     10.322388   -1.602257    0.527316
O     -8.992597    3.436263   -1.157375
O    -10.949233    1.689586    2.816141
O     -8.216175   -0.686344    4.193383
O      2.235454   -1.814015   -0.982571
O      6.762706    2.766974   -0.658499
O     10.278368    0.527063   -2.352807
O      0.862432    1.979579   -0.226571
O      5.136688   -0.676973   -2.017003
O      9.752001    1.477455    0.031182
O    -10.345292    2.795940    0.483455
O     -1.012480    0.612404    0.002050
O     14.688049   -0.741126   -1.254938
O     -9.064530   -1.264136    0.448293
O      3.383288    0.530463   -1.074409
O      7.980933    0.498514   -0.966035
O     12.854015   -0.268741   -0.048668
H     -0.217727    2.832120   -2.335932
H      0.925773    2.039881   -3.495484
H     -0.294874    1.035108   -2.640537
H      5.969043   -1.692936    1.019486
H      4.875905   -2.511554   -0.129696
H      4.476732   -0.847437    0.588345
H     10.893291    3.198859    1.317140
H     12.167474    3.006884    0.092092
H     12.366563    2.351154    1.802887
H    -10.087877    4.970316    1.569669
H     -8.856347    4.590979    2.775353
H    -10.515460    4.055639    3.120968
H     -4.126947   -2.024088    0.142251
H     -5.073254   -1.156936   -1.063801
H     -5.870710   -2.009435    0.387059
H    -11.022036   -0.288305    2.133709
H    -10.178429   -0.516566    3.682976
H     -9.740777   -1.597115    2.342789
H      0.710505   -3.206807   -1.152571
H      1.585326   -2.772337   -2.727110
H      2.353920   -3.774174   -1.496674
H      7.075339    4.526845    0.304411
H      5.355047    4.039821    0.041244
H      6.371826    3.186417    1.330267
H      9.923474    0.860177   -4.303368
H      9.989214   -0.864677   -3.838160
H     11.517750    0.115423   -3.944204
H    -13.459778   -7.860801   -2.946091
H    -11.582897   -7.720952   -1.398223
H    -14.482017   -5.779339   -3.881430
H    -14.381622    1.975142   -2.288300
H    -10.720265   -5.529819   -0.778473
H    -13.561202   -3.549640   -3.213548
H    -12.613684    2.265647   -0.503019
H    -12.018752   -2.206614   -2.006780
H     -3.619441   -1.459579    3.664418
H     -4.689258   -2.265144    2.377334
H     -6.013534   -1.355586    4.322722
H     -5.154425    0.233479    4.055686
H    -10.069347   -3.706180   -0.289199
H     -2.743050    2.418428   -0.237556
H     -3.443615    2.340786    1.387022
H     -4.994937    1.703079   -0.421351
H     -3.834847    0.508496   -1.042506
H     -9.021013    3.108318    4.122609
H     -9.499694    1.449114    4.582969
H     -6.903826    2.087923    3.172149
H     -7.157275    1.361508    4.833651
H    -13.852799    2.443164   -4.622663
H     -1.855873   -0.761223    2.341942
H     -2.336318   -1.294218    0.731373
H     -6.866356   -0.458597   -0.427304
H     -7.132678    1.262705   -0.308193
H      0.725048   -1.109041    1.000588
H      2.107602    0.016404    0.914887
H      4.540205    2.549389   -2.024890
H      5.878726    1.774342   -2.895633
H     -9.895145    3.478532   -3.511123
H     13.927592   -3.305569   -1.049833
H     15.314315   -3.685746    0.092993
H      2.179505    2.554913   -1.615209
H      6.767966   -1.560745   -1.277595
H     10.912988    0.575943    1.436167
H     -8.476402    3.167163    1.134010
H     -3.879799    0.690914    2.500266
H     -1.461316    1.377202    1.854799
H     -6.815437   -1.431514    2.122194
H     -5.985466    1.490163    1.565820
H      0.442281   -0.903760   -1.501692
H      5.151440    1.800746    0.084814
H     16.071638   -2.180603   -1.720768
H     -9.278193    0.673095    0.135926
H      0.159793    1.299576    1.505835
H      3.809374    0.357272   -3.085031
H     16.745013   -2.261023    0.785878
H     16.780735    0.212348    1.670957
H     14.337373    0.994499    1.538204
H      9.162393   -1.510390   -1.119001
H      2.173170    0.278526   -2.744971
H      6.787573    0.241226    0.625565
H     12.271484    1.304220   -1.172097
H     11.411198   -1.111928   -1.979453
H     13.938875    1.120881   -1.088462
H      8.662286    0.094614    0.979290
H     13.397239   -3.194987    1.216654
H     17.456297   -0.748570   -1.338940
H     15.190810   -0.291665    2.996295
H     15.803851    1.725823   -0.706904
H      9.745964   -2.360269    0.794344
H    -11.495846    1.784693    1.999256
H     -8.196396   -1.645902    3.881171
