177

C      2.092520    2.545032    1.965628
C      5.918548    0.488948   -1.443004
C     12.817600    0.663397    2.259943
C    -12.585254   -1.036488    0.697244
C     -5.106423   -1.068669    1.837459
C     -9.398818   -2.237258    1.853328
C      2.069087   -2.451268   -0.966187
C      7.394650   -0.107442    3.727944
C     11.796697   -0.092751   -3.541635
C    -14.506887    5.561913    3.966662
C    -14.229296    5.990599    2.688233
C    -13.913352    4.394816    4.400577
C    -13.023252    1.260029   -5.920222
C    -13.383162    5.276191    1.858730
C    -13.069069    3.689420    3.560545
C    -13.081645    0.419293   -4.835938
C    -11.927671    3.373625    1.362915
C     -4.784698   -3.187434   -0.525577
C     -6.189096   -3.254078   -1.069449
C    -11.322820    2.249995    1.644302
C     -3.493299    0.796804   -0.448742
C     -4.856612    0.591610    0.101221
C    -10.343294   -3.066774   -1.568609
C     -8.837139   -3.003632   -1.686590
C    -12.035697    2.215332   -5.945997
C     -2.900361   -1.636549   -0.156625
C     -7.660281   -0.326900    0.848475
C      0.308902   -1.077735    1.417205
C      5.612866    1.535074    1.331194
C    -11.219857    1.469407   -3.848235
C     15.819471    1.595811   -1.898705
C      1.508585    1.416698    1.095697
C      6.411950   -0.271764   -0.267260
C     11.908764    0.526362    1.047440
C    -11.860203   -1.515150   -0.537282
C    -12.785209    4.104765    2.282253
C    -12.177865    0.498747   -3.761363
C     -4.379936   -1.700682   -0.502046
C     -2.457307   -0.198385   -0.130081
C     -7.032997   -2.501469   -0.016261
C     -6.693838   -1.048652   -0.042357
C      1.691701   -1.052594    0.753926
C      7.015618    1.008571    1.720504
C     16.410760    0.215577   -1.727833
C     -9.062492   -0.452651    0.175748
C    -10.468803    1.536564    0.694510
C     -0.380662    0.183911    0.850430
C      4.710089    0.374366    1.188775
C     17.491144    0.299182   -0.674740
C     16.849687    0.459970    0.676773
C     15.796596   -0.604547    0.833423
C     10.315439   -0.759850   -0.775978
C      2.401569    0.226154    1.137335
C      7.564519    0.460881    0.386645
C     12.551382   -0.194726   -0.094534
C     11.625493   -0.073894   -1.288452
C    -12.334337   -0.460689   -2.695717
C     14.805265   -0.676239   -0.267409
C      9.796324    0.114056    0.360950
C     -5.239612   -0.851660    0.357865
C     -9.464922   -1.868357    0.333323
C    -10.697666   -2.380962   -0.273569
C     -8.431581   -2.841698   -0.257875
N    -11.167133    2.288590   -4.910749
O     14.940755    1.644634   -2.993146
O    -10.308023    2.045023   -0.430154
O     18.124405   -0.963650   -0.662505
O     16.364827    1.733772    0.923107
O     16.480889   -1.855679    0.900855
O      9.414834   -0.960753   -1.777671
O    -13.218201   -1.374979   -2.843511
O    -11.159739   -3.415126    0.609076
O     -8.698935   -4.088321    0.358937
O      1.504033   -1.235772   -0.586966
O      6.787249   -0.102835    2.501094
O     11.978070   -0.820165   -2.377808
O      0.218587    1.242755    1.465105
O      5.433721   -0.679008    0.634784
O     10.705256   -0.029387    1.395042
O    -11.624057   -0.508152   -1.502197
O     -1.753240    0.059244    1.070580
O     15.430433   -0.697647   -1.485089
O     -9.871787    0.353077    1.012496
O      3.551058    0.499484    0.478874
O      8.584784   -0.414225    0.740265
O     13.822834    0.304576   -0.290333
H      1.378462    3.408789    1.856521
H      3.043568    2.908848    1.534397
H      2.169890    2.259305    3.023369
H      5.801499   -0.230675   -2.305656
H      6.706695    1.197776   -1.763585
H      4.918201    0.946699   -1.343469
H     13.147192   -0.303304    2.639633
H     12.292070    1.243197    3.059868
H     13.694712    1.275287    1.978631
H    -12.040886   -1.179329    1.630140
H    -13.565043   -1.582453    0.858961
H    -12.893100    0.023928    0.626687
H     -5.484978   -2.003127    2.226896
H     -5.716651   -0.240675    2.310522
H     -4.062319   -0.838614    2.157936
H     -9.523959   -1.322216    2.446463
H    -10.120891   -3.029960    2.096992
H     -8.408113   -2.653056    2.109042
H      1.601562   -3.313465   -0.421482
H      3.168937   -2.492068   -0.758172
H      1.990569   -2.579780   -2.067360
H      7.112064   -1.077230    4.230914
H      6.986629    0.679802    4.413584
H      8.484729   -0.070554    3.618520
H     12.423665    0.816121   -3.478448
H     12.045325   -0.691634   -4.448189
H     10.735830    0.269593   -3.639081
H    -15.165310    6.083465    4.654738
H    -14.698600    6.902960    2.360507
H    -14.118518    4.032558    5.405325
H    -13.713440    1.199866   -6.736103
H    -13.219684    5.699852    0.855374
H    -12.639540    2.793806    3.953806
H    -13.872358   -0.328968   -4.841361
H    -11.759171    3.771222    0.358744
H     -4.039164   -3.726136   -1.114906
H     -4.807561   -3.595227    0.507669
H     -6.203930   -2.712365   -2.029576
H     -6.572917   -4.282432   -1.096761
H    -11.455583    1.821459    2.629553
H     -3.137514    1.793724   -0.070001
H     -3.570427    0.933909   -1.559464
H     -4.991385    1.205904    1.042304
H     -5.597167    1.028573   -0.600517
H    -10.737864   -2.462237   -2.405876
H    -10.712467   -4.111353   -1.602220
H     -8.479342   -3.971502   -2.128230
H     -8.463681   -2.191226   -2.320224
H    -11.999450    2.874337   -6.802210
H     -2.394309   -2.243007   -0.939756
H     -2.821670   -2.121224    0.844546
H     -7.358414    0.739635    0.855852
H     -7.671302   -0.787706    1.829715
H      0.395371   -0.927542    2.488278
H     -0.207151   -1.990938    1.147117
H      5.291778    2.086427    2.267410
H      5.760588    2.188662    0.484026
H    -10.516995    1.536945   -3.030514
H     16.636795    2.348257   -2.054131
H     15.234497    1.955753   -1.042679
H      1.529535    1.867043    0.057420
H      6.858313   -1.230288   -0.639729
H     11.693726    1.588946    0.729095
H    -12.628907   -2.204223   -1.025609
H     -4.493588   -1.350758   -1.549330
H     -1.650196   -0.147851   -0.931166
H     -6.674938   -2.929725    0.946565
H     -6.822767   -0.609739   -1.075029
H      2.230134   -1.914256    1.179657
H      7.647340    1.781829    2.140354
H     16.901743    0.004930   -2.741004
H     -8.978349   -0.148668   -0.852257
H     -0.161513    0.143538   -0.214444
H      4.394554    0.000890    2.216335
H     18.231361    1.088599   -0.901765
H     17.616259    0.231111    1.487805
H     15.387658   -0.486598    1.854071
H     10.652269   -1.727896   -0.369515
H      2.683897    0.053118    2.223802
H      7.913189    1.333469   -0.172593
H     12.581817   -1.299101    0.169176
H     11.326758    0.954545   -1.463648
H     14.276248   -1.706668   -0.184138
H      9.749060    1.132906   -0.074298
H     14.901928    2.613993   -3.240159
H     18.996157   -0.873973   -0.177108
H     16.192717    1.817589    1.898709
H     15.907952   -2.526185    0.487735
H      8.868807   -0.178308   -2.029809
H    -11.765856   -3.977217    0.040237
H     -8.535519   -4.835319   -0.303592
