68

C     -0.206846   -5.402961    2.267972
C      3.894259   -3.000156   -2.991249
C     -3.561345   -1.012609    0.970169
C      6.435659    4.826380    0.458380
C     -6.670023    3.002943    1.572620
C     -6.213153    2.175005    2.564750
C     -5.856055    3.260983    0.500742
C     -4.954416    1.619519    2.471559
C     -4.579357    2.689681    0.419038
C     -1.280932   -4.177740    0.357226
C      3.044567    2.501615    0.006074
C      4.369984    0.605615   -0.343867
C      4.180782    3.261529    0.154132
C      5.524112    1.330917   -0.202478
C     -1.352362   -3.106672   -0.508295
C     -2.724459    0.305685   -0.866669
C     -2.085052   -0.782812   -1.715016
C      0.593255   -3.201906    1.367349
C     -2.785196    1.249467    1.338377
C     -0.297270   -4.242753    1.318289
C      3.322177   -1.654219   -2.902942
C     -4.111860    1.856677    1.411026
C      3.105881    1.135998   -0.250279
C      5.423528    2.685281    0.051443
C     -0.456633   -2.039075   -0.472844
C      0.523076   -2.130967    0.503490
C      1.742057   -0.133197   -1.817767
C      1.872731    0.361844   -0.398944
C      0.291216   -0.333720   -2.173262
N     -2.724301    0.049393    0.534956
N     -0.742980   -1.053330   -1.458220
O      3.674687   -0.700794   -3.640344
O     -0.126475    0.168046   -3.214393
O      6.553362    3.449671    0.200137
O      2.335944   -1.399108   -1.959650
S      1.830753   -0.945230    0.815675
H      0.317352   -6.237814    1.760162
H      0.277098   -5.088491    3.197543
H     -1.257882   -5.769231    2.428909
H      4.467503   -3.197099   -2.063897
H      4.627427   -3.022485   -3.818464
H      3.110332   -3.787966   -3.139312
H     -3.026208   -1.560738    1.784159
H     -4.464200   -0.572506    1.451713
H     -3.923980   -1.674026    0.169053
H      7.434087    5.341754    0.358977
H      6.050706    4.999757    1.491312
H      5.755894    5.359859   -0.232621
H     -7.668550    3.425861    1.676321
H     -6.850591    1.960672    3.423544
H     -6.240573    3.918842   -0.272298
H     -4.632212    0.979741    3.267264
H     -4.006230    2.946105   -0.458822
H     -2.000155   -5.002846    0.306737
H      2.071180    2.974740    0.090762
H      4.448307   -0.452879   -0.540244
H      4.109900    4.312857    0.352644
H      6.488915    0.842460   -0.289739
H     -2.102886   -3.070594   -1.249472
H     -3.792248    0.313458   -1.172616
H     -2.358745    1.312433   -1.144196
H     -2.111406   -0.253757   -2.739150
H     -2.812359   -1.582050   -1.675340
H      1.373192   -3.225919    2.108651
H     -2.015284    1.945601    0.892622
H     -2.365865    0.987682    2.342569
H      2.118168    0.626984   -2.498126
H      0.989996    1.030592   -0.212908
