67

C     -1.979539   -0.112993   -2.027719
C     -1.880202   -1.443284   -2.559912
C      8.285071   -0.760860   -2.403076
C      7.961885   -0.975584   -1.079576
C      7.397173   -0.030559   -3.161727
C     -1.631942    0.239591   -0.799965
C     -3.110069   -2.074238   -3.072661
C      6.790215   -0.477305   -0.531107
C      6.217416    0.472562   -2.613357
C     -1.091025   -0.625417    0.232797
C     -4.260638   -2.338106   -2.200100
C     -3.615431   -1.671358    2.820149
C     -3.625890   -0.386791    3.657099
C      1.471662    2.508610   -0.408742
C      0.662705    2.613930    0.699508
C     -4.011298    0.136869    1.431948
C      3.668242    1.531408   -1.285253
C      2.254587    1.314883    1.899119
C      5.896551    0.258486   -1.296273
C     -3.226594   -1.173174    1.435458
C      2.659404    1.812943   -0.361240
C     -3.339365    0.708679    2.701553
C      1.052198    2.007164    1.886674
C     -1.823693   -0.695431    1.532462
C      4.658306    0.775044   -0.701007
C      3.084344    1.192878    0.805801
C     -4.944236   -1.173903   -1.672693
C     -1.917248    0.665887    2.240687
N      4.265489    0.588276    0.578834
N     -1.038030    0.774772    3.367883
O     -5.793923   -1.375145   -0.727475
O     -4.723680    0.095555   -2.139047
O     -0.807437    3.378271    3.136568
O      0.828689    2.274852    4.541384
S      0.025501    2.135407    3.265367
H     -2.325798    0.748923   -2.652274
H     -1.175855   -1.382721   -3.468261
H     -1.422962   -2.188996   -1.847224
H      9.215625   -1.171275   -2.791646
H      8.652394   -1.553996   -0.457293
H      7.646931    0.138747   -4.199099
H     -1.757251    1.307181   -0.516922
H     -3.449002   -1.575151   -4.048391
H     -2.798583   -3.111626   -3.487026
H      6.527903   -0.639441    0.504495
H      5.532039    1.046810   -3.235351
H     -0.060642   -0.205509    0.489713
H     -0.846121   -1.667076   -0.078954
H     -5.034223   -3.007530   -2.732439
H     -3.925089   -3.042025   -1.374695
H     -4.578760   -2.179818    2.856219
H     -2.808961   -2.330681    3.191025
H     -4.669420   -0.257998    4.041851
H     -2.920595   -0.488928    4.485119
H      1.184677    2.972914   -1.335832
H     -0.281169    3.164448    0.683063
H     -5.088147   -0.033710    1.602546
H     -3.808119    0.731428    0.546626
H      3.668793    1.860790   -2.307948
H      2.538984    0.853122    2.826025
H     -3.455720   -1.857508    0.646196
H     -3.718257    1.689246    2.957518
H     -1.293111   -1.353907    2.269694
H     -1.762832    1.487257    1.503020
H      4.779080    0.061480    1.298953
H     -1.620071    0.947563    4.244669
H     -5.304936    0.866068   -1.874038
