64

C      3.393596   -0.673416    1.659470
C      7.443158    1.800692   -1.073241
C     -4.064736    1.768396    1.356600
C     -0.780822    0.791573    1.439084
C     -0.628169   -3.400916    0.431566
C     -1.888450    2.025708   -1.670028
C      1.839704   -0.234517   -0.381918
C      0.835713   -1.197764    0.137042
C     -3.206194   -0.733555    1.065940
C      4.135998   -0.961686   -0.646074
C     -2.888129    2.591001   -0.682550
C     -0.730334    1.383109   -0.926884
C     -2.387075   -1.958597    1.161099
C      5.498704   -1.377947   -0.227549
C     -4.781605    1.102502   -0.836397
C      3.167132   -0.637292    0.197674
C      6.422442    0.863541   -0.487185
C     -2.691894    0.159501   -0.014346
C     -0.580002   -0.999846   -0.306993
C     -3.507394    1.388458   -0.016429
C     -1.201496    0.314613    0.064163
C     -1.451206   -2.191407    0.008958
O     -5.588277    2.231884   -0.890912
O      5.564854    1.381691    0.260626
O     -2.188907   -2.607729   -1.098476
O      6.443899   -0.482445   -0.766693
H      3.327910   -1.755792    1.961498
H      2.532218   -0.161782    2.136953
H      4.361541   -0.320216    2.001141
H      8.392320    1.261176   -1.279596
H      7.683148    2.567794   -0.292564
H      7.036546    2.307381   -1.969746
H     -3.304569    1.903167    2.111885
H     -4.543753    2.776864    1.196183
H     -4.834929    1.081901    1.706947
H     -0.710942    1.904413    1.433182
H     -1.427566    0.418706    2.255191
H      0.239409    0.443377    1.694634
H     -0.077427   -3.854888   -0.387108
H     -0.032854   -3.197977    1.339762
H     -1.394555   -4.166881    0.755125
H     -1.480100    2.860280   -2.237370
H     -2.418732    1.297602   -2.300301
H      1.932514   -0.299270   -1.483553
H      1.684069    0.829071   -0.153222
H      0.932749   -1.403558    1.227763
H      1.142027   -2.193388   -0.318111
H     -4.273724   -0.984441    0.777289
H     -3.326338   -0.243528    2.056311
H      3.976714   -0.938980   -1.736827
H     -2.429864    3.297387    0.029795
H     -3.622428    3.172714   -1.276869
H     -0.220019    2.228629   -0.418293
H     -0.123301    0.895916   -1.715691
H     -1.814359   -1.962383    2.122609
H     -3.062851   -2.838145    1.211671
H      5.647031   -1.390318    0.863012
H      5.736855   -2.411741   -0.599646
H     -5.351381    0.250830   -0.414059
H     -4.509546    0.818974   -1.874763
H     -2.886356   -0.382517   -0.987880
H     -0.524063   -0.983405   -1.440962
H     -6.093696    2.409335   -0.079878
H     -2.342211   -3.581858   -1.116600
