64

C      3.871684    0.667962    0.725336
C      7.675709    1.161124    0.226682
C     -4.449405    0.402547   -1.538901
C     -1.055856    0.665211   -1.347394
C     -0.277183   -2.658161   -0.216364
C     -2.266993    2.890601    0.127550
C      1.925439   -1.005340    1.132901
C      0.947932   -0.150147    0.411260
C     -3.064955   -1.339255   -0.016997
C      3.995229   -1.639848    0.011205
C     -3.551036    2.415380   -0.386792
C     -1.317324    1.914428    0.710969
C     -2.292664   -2.120893    1.010091
C      5.316972   -1.656742   -0.570132
C     -5.110372    0.840547    0.719603
C      3.309263   -0.691781    0.585953
C      6.848257   -0.028997    0.496109
C     -2.840575    0.114717    0.355791
C     -0.489427   -0.378547    0.857633
C     -3.891445    0.974218   -0.222783
C     -1.417435    0.514041    0.090323
C     -0.816703   -1.815229    0.886502
O     -6.112438    1.619691    0.106937
O      6.727939   -0.583401    1.608084
O     -0.274808   -2.351036    2.087127
O      6.146832   -0.573136   -0.582808
H      4.428905    0.993592   -0.169210
H      3.051770    1.439527    0.808138
H      4.415218    0.739026    1.670912
H      8.185990    1.023119   -0.750160
H      8.406678    1.387103    1.018363
H      7.049856    2.080127    0.106164
H     -5.257044   -0.324758   -1.371269
H     -3.672908   -0.130415   -2.112332
H     -4.753294    1.274478   -2.155999
H     -0.881379   -0.270736   -1.884818
H     -1.772593    1.298467   -1.864851
H     -0.085243    1.230467   -1.380726
H      0.432307   -2.195178   -0.890836
H     -1.110217   -3.044822   -0.878455
H      0.209162   -3.611083    0.148206
H     -2.391621    3.703573    0.908240
H     -1.714010    3.433476   -0.698971
H      2.002153   -0.722994    2.216865
H      1.793253   -2.069701    1.075884
H      1.170207    0.907003    0.704611
H      1.066952   -0.280595   -0.661299
H     -2.633565   -1.582901   -1.007547
H     -4.123949   -1.592048    0.074239
H      3.454370   -2.641518   -0.046418
H     -3.683102    2.686735   -1.480081
H     -4.372298    3.033937    0.092132
H     -1.510856    1.763855    1.795996
H     -0.286133    2.311437    0.633333
H     -2.423467   -3.206692    0.938555
H     -2.606524   -1.727749    2.019611
H      5.868635   -2.581091   -0.167586
H      5.206830   -1.990049   -1.677817
H     -4.872304    1.172119    1.729379
H     -5.497156   -0.204174    0.692762
H     -2.943121    0.155805    1.482821
H     -0.508080   -0.006664    1.927429
H     -6.412133    2.354896    0.676781
H     -0.767929   -1.993527    2.868442
