40

C     -4.619398    1.234834    0.938704
C     -3.285975    0.506447    0.883368
C      5.040757    1.184751    0.911729
C      4.648160   -0.139789    0.973219
C      4.074816    2.091518    0.545800
C      3.369136   -0.549665    0.688569
C      2.779352    1.690592    0.255808
C     -1.938753   -1.783034   -1.189599
C     -1.027882   -2.778975   -0.520103
C      2.413472    0.371693    0.323426
C     -1.738511   -0.402431   -0.596477
C      0.399070   -2.528022   -0.796250
C     -0.874994    0.417216   -1.513842
C      0.305509    0.949363   -0.730814
C      1.035055   -0.129461    0.030570
O      1.090624   -3.516507   -1.144654
O     -0.466176   -0.299644   -2.635989
O     -0.197102    1.924853    0.133393
O     -2.943220    0.263110   -0.417942
O      1.126573   -1.326426   -0.729510
H     -4.554347    2.218553    1.422286
H     -5.394428    0.660566    1.486570
H     -5.016696    1.353635   -0.099022
H     -2.546036    1.203474    1.325565
H     -3.414339   -0.411472    1.494051
H      6.045596    1.497073    1.136502
H      5.402177   -0.887368    1.263856
H      4.375327    3.139005    0.494561
H      3.148382   -1.591360    0.760024
H      2.064953    2.434558   -0.019943
H     -2.986544   -2.138184   -0.994896
H     -1.743241   -1.718415   -2.264254
H     -1.186358   -2.778825    0.566595
H     -1.273711   -3.794453   -0.900810
H     -1.320685   -0.570314    0.413060
H     -1.423153    1.312786   -1.903908
H      1.000364    1.483478   -1.423106
H      0.576380   -0.290320    1.031465
H     -0.752376    0.090850   -3.475824
H     -0.191776    1.606309    1.080800
