52

C      6.992797    1.450677    1.083621
C      7.074791    1.039371   -0.355457
C      6.412345   -0.308577   -0.566283
C      4.954771   -0.155067   -0.144423
C      4.191995   -1.423025   -0.306506
C      2.767657   -1.234985    0.146989
C      2.106991   -0.170904   -0.676218
C      0.667479    0.090509   -0.311757
C     -0.143949   -1.134463   -0.503608
C     -1.615171   -0.922748   -0.164065
C     -2.247548    0.124924   -1.001659
C     -3.687413    0.322811   -0.698577
C     -6.304218   -0.383154    0.742234
C     -7.621219    0.084525    0.105185
C     -4.036997    0.737918    0.681789
C     -5.549079    0.914392    0.827088
C     -7.123023    1.123367   -0.831435
O     -3.674562   -0.147369    1.687285
O     -7.574167    1.329940   -1.985164
O     -6.087116    1.776363   -0.149296
H      8.005245    1.808355    1.383899
H      6.739782    0.603542    1.742776
H      6.246082    2.262981    1.255760
H      8.133463    1.001451   -0.722351
H      6.575786    1.805383   -0.982842
H      6.454556   -0.530219   -1.649512
H      6.925874   -1.115203   -0.036628
H      4.545876    0.602804   -0.848187
H      4.929428    0.151703    0.914145
H      4.652807   -2.286924    0.219445
H      4.122573   -1.722440   -1.394499
H      2.217938   -2.201047    0.174406
H      2.848763   -0.803518    1.189701
H      2.185105   -0.396089   -1.772483
H      2.635159    0.797517   -0.487853
H      0.675527    0.431123    0.752422
H      0.346038    0.950351   -0.934432
H      0.272162   -1.961085    0.106703
H     -0.099808   -1.471921   -1.554991
H     -1.589509   -0.578580    0.911515
H     -2.189313   -1.862040   -0.229279
H     -1.677349    1.081715   -0.847372
H     -2.197078   -0.169566   -2.091848
H     -4.256456   -0.573687   -1.037437
H     -4.048991    1.135259   -1.404024
H     -5.861410   -1.081615    0.035729
H     -6.497257   -0.828209    1.741401
H     -8.262554    0.531006    0.906870
H     -8.146774   -0.732226   -0.397651
H     -3.569134    1.743659    0.879739
H     -5.743708    1.359375    1.854296
H     -3.877187   -1.066362    1.448070
