53

C      7.525622    0.239828    0.173556
C      7.073072    0.692526   -1.177663
C      6.197235   -0.316393   -1.877819
C      4.938026   -0.617461   -1.085465
C      4.099308    0.589909   -0.862927
C      2.882371    0.250175   -0.052980
C      2.021930   -0.769261   -0.740226
C      0.786611   -1.132356    0.046761
C     -0.054910    0.068212    0.258439
C     -1.331159   -0.214762    1.021416
C     -2.220018   -1.198072    0.346676
C     -3.454043   -1.405997    1.193895
C     -5.687945    1.556060    0.449699
C     -7.015177    0.843845    0.402901
C     -4.737522    0.409252    0.137063
C     -4.259097   -0.172723    1.426846
C     -6.785454   -0.311114   -0.491022
N     -5.542115   -0.524689   -0.617212
O     -5.347840   -0.537880    2.223289
O     -7.764249   -1.086546   -1.128103
H      8.625327    0.415572    0.308823
H      7.377813   -0.844275    0.346661
H      7.029320    0.823760    0.980002
H      7.972241    0.830726   -1.812757
H      6.569597    1.675353   -1.131802
H      6.724817   -1.254297   -2.045737
H      5.898501    0.101597   -2.852529
H      5.143068   -1.189598   -0.165779
H      4.360587   -1.316581   -1.762237
H      4.671234    1.445698   -0.421196
H      3.707260    1.017378   -1.833550
H      3.163241   -0.214622    0.938812
H      2.281332    1.163999    0.171900
H      2.621582   -1.687211   -0.941723
H      1.652814   -0.327077   -1.708078
H      0.284643   -1.948259   -0.511385
H      1.143040   -1.541470    1.034309
H      0.514697    0.774298    0.935771
H     -0.243559    0.624373   -0.671949
H     -1.869570    0.765438    1.054435
H     -1.133220   -0.513531    2.051676
H     -1.763881   -2.189441    0.193358
H     -2.569555   -0.749703   -0.619456
H     -4.057755   -2.263053    0.821613
H     -3.075459   -1.744680    2.202050
H     -5.604509    2.360172   -0.298697
H     -5.464673    1.994594    1.444612
H     -7.789856    1.536113   -0.002430
H     -7.274457    0.514659    1.434293
H     -3.911163    0.833683   -0.453781
H     -3.662425    0.559959    1.978203
H     -5.077329   -0.454184    3.170329
H     -7.568351   -2.008936   -1.480885
