57

C     -3.009463    4.265760    0.605437
C     -1.095078   -1.737633    0.864637
C     -5.066050   -4.073677    1.312027
C      3.867394   -1.105766   -1.869082
C      2.642008   -2.646456   -0.427363
C      4.690963   -1.623716    0.446934
C      3.368115    1.602224   -0.380384
C      2.384533    0.022297    1.986278
C     -1.712119    2.381794   -0.311885
C     -0.523624    1.733198   -0.851626
C     -2.171769   -0.572487   -0.924318
C     -0.601339    4.586156   -0.064443
C     -3.629628   -2.202485   -2.077903
C     -1.736798    3.644681    0.045539
C     -1.161178   -0.559824   -0.078324
C     -4.335446   -3.166291    0.318532
C     -3.136108   -1.701598   -0.883380
C     -0.114366    0.488722   -0.040510
C      3.493316   -1.403941   -0.441218
N     -3.608760   -2.314553    0.182336
O     -0.276744    5.066605    1.219546
O      1.000338    0.005058   -0.665005
S     -4.778294   -3.572535   -1.466304
Si     2.445586    0.043850    0.162621
H     -3.715921    3.442115    0.756077
H     -2.704173    4.647949    1.618766
H     -3.382915    5.057662   -0.043789
H     -0.082802   -1.809888    1.258653
H     -1.852309   -1.640494    1.661326
H     -1.268182   -2.678353    0.278348
H     -4.653037   -5.101374    1.247360
H     -4.797614   -3.660966    2.285078
H     -6.149351   -4.023573    1.086761
H      4.629225   -0.316330   -1.917805
H      2.957622   -0.704449   -2.373642
H      4.162165   -2.030684   -2.405518
H      2.152649   -2.798543    0.561910
H      1.908136   -2.644405   -1.258551
H      3.315720   -3.520522   -0.616675
H      5.480718   -2.102563   -0.183085
H      5.074864   -0.695830    0.899936
H      4.432805   -2.341359    1.247950
H      4.450207    1.478427   -0.297036
H      3.122785    1.839841   -1.439213
H      3.004771    2.452900    0.237905
H      1.782983   -0.826621    2.358970
H      3.431076   -0.192175    2.357139
H      2.118933    0.984784    2.465260
H     -2.659384    1.846008   -0.163261
H      0.364621    2.374161   -0.891519
H     -0.683957    1.370997   -1.914887
H     -2.316203    0.177254   -1.648065
H      0.277982    4.234615   -0.608460
H     -0.926038    5.516989   -0.620182
H     -3.504536   -1.996837   -3.083495
H      0.067325    0.793235    1.016973
H     -0.973655    5.708648    1.464628
