57

C      1.966364    4.168429    1.278406
C      1.629425    0.136641   -1.869466
C      5.040213   -3.763541    1.568160
C     -3.039225   -0.290154    1.791726
C     -1.470280   -2.056365    1.180711
C     -3.860984   -2.461178    1.016752
C     -3.164196   -2.373518   -1.952709
C     -4.335011    0.239239   -1.114557
C      0.231263    2.765364    0.242880
C     -0.559093    2.092573   -0.801253
C      1.503282   -0.379182    0.476052
C      1.791912    3.887573   -1.257035
C      3.913796   -0.157002   -0.199542
C      1.263978    3.553292    0.062659
C      0.884161    0.085256   -0.571227
C      4.302968   -2.504326    1.033695
C      2.918378   -0.856508    0.430568
C     -0.544058    0.578918   -0.526073
C     -2.788775   -1.400937    0.829850
N      3.298449   -1.993688    0.982780
O      3.128283    3.493730   -1.410991
O     -1.381182   -0.115889   -1.277206
S      5.371992   -1.273758    0.085746
Si    -2.790173   -0.800937   -0.955501
H      1.324214    4.973168    1.686846
H      2.020115    3.378796    2.071111
H      2.980617    4.484792    1.013035
H      0.865922    0.002931   -2.712065
H      2.375747   -0.674555   -1.966016
H      2.093410    1.090682   -2.085375
H      4.460694   -4.038427    2.446939
H      5.016138   -4.516450    0.753985
H      6.072241   -3.457306    1.828608
H     -3.839015   -0.623245    2.510459
H     -2.168992   -0.033883    2.434489
H     -3.457311    0.638951    1.304528
H     -1.629895   -3.130730    1.487919
H     -1.008857   -1.582500    2.069886
H     -0.789473   -2.103234    0.326924
H     -3.392904   -3.462097    0.816086
H     -4.693971   -2.359874    0.320747
H     -4.224715   -2.490960    2.058593
H     -3.145492   -2.169537   -3.019736
H     -2.530513   -3.211572   -1.611934
H     -4.206314   -2.639756   -1.677889
H     -5.172776   -0.414158   -0.787398
H     -4.350755    1.123791   -0.483199
H     -4.564340    0.463291   -2.194582
H     -0.042636    2.617505    1.322354
H     -0.209755    2.334041   -1.779566
H     -1.619081    2.380423   -0.597548
H      0.955506   -0.413725    1.434004
H      1.239889    3.452871   -2.086714
H      1.797804    5.017027   -1.373740
H      3.986515    0.764531   -0.732118
H     -0.861454    0.516679    0.525521
H      3.407953    3.508501   -2.348577
