62

C      3.045253    0.817618    1.676793
C      3.373654    2.113481   -0.360047
C     -2.873625    0.860728   -1.989313
C     -3.347842   -0.931510    1.345126
C      5.338454   -1.920502   -0.367231
C      0.631297    1.967200    0.109283
C     -0.665270    1.803645   -0.702581
C      2.649714   -1.312689   -1.147432
C     -5.138496    0.929046   -0.035954
C     -3.787894    1.604606    0.150456
C      1.585549   -1.713907   -0.170136
C     -2.693727   -1.725696   -0.896152
C     -1.274050   -1.745013   -0.504056
C      0.033670   -0.723172    1.526561
C      1.407060    0.693184   -0.207371
C     -1.433002    0.718221    0.069313
C      3.592869   -0.298426   -0.527361
C     -4.820270   -0.464527   -0.521867
C      2.855468    0.783713    0.204892
C     -2.801027    0.657907   -0.522837
C     -3.415511   -0.684823   -0.117338
C      0.749160   -0.529361    0.279268
C     -0.724038   -0.556190    0.184868
N      4.520662   -0.952914    0.390259
O     -5.523547   -1.240780   -1.104552
H      4.017487    0.512371    2.056174
H      2.278979    0.250769    2.244918
H      2.906562    1.889001    2.008508
H      4.468360    1.955210   -0.517753
H      3.183615    2.947118    0.327908
H      2.924624    2.231174   -1.362647
H     -3.793317    0.324545   -2.360479
H     -3.100684    1.951034   -2.173600
H     -1.990537    0.538729   -2.549548
H     -4.383258   -1.043073    1.780853
H     -2.888587   -1.949381    1.503375
H     -2.843796   -0.175328    1.944221
H      6.347175   -1.966813    0.088431
H      5.472415   -1.593645   -1.415472
H      4.909230   -2.938743   -0.285961
H      1.209625    2.833882   -0.223430
H      0.372042    1.967859    1.174541
H     -1.286551    2.712707   -0.637308
H     -0.395513    1.494455   -1.710494
H      3.262506   -2.240997   -1.333621
H      2.283332   -1.004992   -2.129294
H     -5.631375    0.768431    0.960663
H     -5.800349    1.460575   -0.720759
H     -3.562233    1.616333    1.252115
H     -3.757518    2.618947   -0.250333
H      1.007789   -2.576341   -0.494629
H      2.133958   -2.049334    0.761425
H     -3.172260   -2.746777   -0.828989
H     -2.804460   -1.457526   -1.986958
H     -0.665240   -1.907826   -1.442891
H     -1.071458   -2.641886    0.123270
H     -0.098685   -1.746172    1.916267
H     -0.114541    0.048848    2.303742
H      1.418934    0.657446   -1.335238
H     -1.576207    1.207007    1.084257
H      4.225433    0.088240   -1.368490
H      5.229988   -0.185688    0.614760
