39

C      0.274299    0.153915   -0.336802
C      2.654744    0.197619   -0.779707
C     -4.018923    0.271162   -1.938428
C     -1.818389    0.463873    1.872879
C      1.551798   -0.660553   -0.306086
C     -0.541056   -1.044245    0.455738
C     -3.422628    1.079537    0.522293
C      1.098325   -1.843190   -1.044774
C     -0.422759   -1.992864   -0.648245
C     -4.491546    1.677921   -0.120872
C     -2.670688    0.100967   -0.068952
N     -5.177007    2.768272    0.514598
N     -4.778384    1.258269   -1.365006
N     -2.992418   -0.287122   -1.314495
N     -2.874623    1.286062    1.748687
N     -1.714558   -0.242486    0.751574
O      1.774303   -2.970980   -0.646450
O     -0.628835   -3.332052   -0.289347
O      4.763648    2.043746   -0.454189
O      6.094530   -0.056752    0.972769
O      3.802442    0.889391    1.605117
O      3.834822   -0.560733   -0.536109
P      4.773998    0.641755    0.361537
H      0.257843    0.989277    0.358481
H     -0.258731    0.183440   -1.232386
H      2.612280    0.222451   -1.965655
H      2.722486    1.186015   -0.447456
H     -4.266070   -0.092385   -2.956656
H     -1.177297    0.467201    2.736844
H      1.732511   -0.963940    0.774599
H      0.095654   -1.181913    1.306909
H      1.148037   -1.705869   -2.163203
H     -0.958087   -1.725829   -1.549884
H     -6.004686    3.170794    0.093811
H     -4.845902    3.160948    1.422664
H      2.191227   -2.795964    0.253739
H     -0.748365   -3.465410    0.673337
H      5.481064    2.677233   -0.178550
H      6.946945    0.032437    0.551280
