21

C      2.705043    0.066672    0.031796
C      2.328878    1.333552    0.432823
C      1.797401   -0.925835   -0.246152
C      0.980673    1.586341    0.551176
C      0.434439   -0.663169   -0.124288
C      0.060651    0.597233    0.274624
C     -1.905133   -0.527001   -0.430258
C     -0.762526   -1.475331   -0.336851
C     -1.423172    0.678635    0.342992
I     -2.300992   -0.087027   -2.463642
O     -0.915125   -2.447946    0.642524
O     -1.811735    1.878868   -0.230236
H      3.765554   -0.162662   -0.070706
H      3.093091    2.080691    0.639649
H      2.070805   -1.917068   -0.559279
H      0.675655    2.580979    0.866334
H     -2.840930   -0.911330    0.032539
H     -0.641449   -2.014838   -1.302527
H     -1.757470    0.658289    1.386105
H     -1.091418   -2.100458    1.532202
H     -2.462241    1.771406   -0.968825
