39

C      3.836229   -0.596319   -1.072622
C      3.551103   -0.110276    1.259332
C     -1.302552   -2.656248   -0.642017
C     -1.283558    1.008155   -1.420643
C     -3.411610    0.309100    0.668950
C     -3.008550   -0.975498    0.050298
C      1.305735    1.472637   -0.211908
C     -2.342595    1.340650    0.720488
C      0.067900    1.820221    0.532717
C      0.663116   -0.894585    0.358723
C      3.000196   -0.238504   -0.115473
C     -1.749364   -1.379730   -0.031895
C      1.552539    0.025536   -0.417013
C     -0.727854   -0.463837    0.538802
C     -1.052477    0.918521    0.040912
H      4.868401   -0.780779   -0.836731
H      3.520396   -0.713334   -2.100503
H      3.870579   -1.119181    1.590916
H      2.893396    0.401237    1.958608
H      4.492832    0.490991    1.190877
H     -0.686545   -2.503917   -1.556690
H     -0.781240   -3.281862    0.119017
H     -2.178978   -3.265110   -0.968922
H     -0.893961    0.162396   -2.011205
H     -2.357355    1.101699   -1.681443
H     -0.808182    1.956493   -1.798186
H     -4.327811    0.672379    0.117224
H     -3.791911    0.123432    1.714247
H     -3.786628   -1.620899   -0.357925
H      2.164793    1.975591    0.322897
H      1.262471    2.018369   -1.199516
H     -2.732527    2.263189    0.197369
H     -2.157417    1.675275    1.766377
H      0.184168    1.621082    1.617703
H     -0.188558    2.880817    0.331125
H      1.188616   -1.104453    1.336402
H      0.672393   -1.880894   -0.169585
H      1.417577   -0.210789   -1.490729
H     -0.942768   -0.441556    1.650023
