49

C      4.039331    1.217320   -1.243213
C     -4.389921    0.249551    1.011138
C      1.556411   -1.394792   -0.694664
C      1.231226    1.804329   -1.010130
C     -0.170449    2.170533   -0.577505
C      3.798973   -0.158538    0.782919
C     -2.374075    1.239422    0.078394
C     -1.244830    0.295294   -1.851902
C      3.245536    0.651986   -0.125144
C     -3.281410    0.053477   -0.032519
C      1.806861    0.936997    0.069755
C      2.932614   -0.656372    1.835894
C     -2.613491   -1.255524    0.303339
C      1.470408   -0.846166    1.662101
C     -0.422335   -0.184976    0.280267
C      1.040907   -0.353732    0.267689
C     -0.984429    0.941466   -0.507052
C     -1.211484   -1.338184   -0.305049
O      3.426336   -0.943786    2.948651
O     -2.589145   -1.538124    1.647256
O      1.133021   -2.185178    1.824625
O     -0.677253   -2.569274   -0.047903
O     -1.372191   -1.053376   -1.655683
H      4.267268    2.297085   -1.084277
H      4.949032    0.601126   -1.349057
H      3.497549    1.152354   -2.208649
H     -3.968852   -0.136393    1.984108
H     -4.579515    1.338138    1.087514
H     -5.256004   -0.338084    0.684443
H      2.539140   -1.049681   -1.134051
H      0.903441   -1.550537   -1.571746
H      1.806691   -2.358422   -0.191330
H      1.284629    1.321298   -1.985247
H      1.813840    2.731302   -1.046401
H     -0.125511    2.646601    0.398801
H     -0.622860    2.869188   -1.292905
H      4.839969   -0.417828    0.718717
H     -2.193157    1.412918    1.173327
H     -2.833854    2.099392   -0.417302
H     -0.490569    0.532827   -2.607114
H     -2.224412    0.671746   -2.269582
H     -3.808487    0.012171   -1.017089
H      1.726791    1.514759    1.033207
H     -3.199939   -2.054264   -0.222246
H      0.912533   -0.222859    2.398038
H     -0.786620   -0.065844    1.343086
H     -3.364173   -2.116496    1.873232
H      1.968802   -2.729943    1.890685
H     -1.406340   -3.242908   -0.093757
