49

C      4.115896   -1.459155    0.751067
C     -4.230899    0.269539    1.175196
C      1.504982    0.379441   -1.585577
C      1.457002   -1.891567    0.291419
C     -0.000204   -2.136177    0.564965
C      3.803569    0.902344    0.436797
C     -2.236711   -1.081627    0.835811
C     -1.305123   -1.471591   -1.375274
C      3.229886   -0.275521    0.607457
C     -3.255507   -0.245791    0.107003
C      1.768212   -0.489052    0.665504
C      2.876445    2.042989    0.299698
C     -2.716192    0.926153   -0.610832
C      1.422591    1.859911    0.426887
C     -0.447994    0.281926   -0.038028
C      0.995372    0.519930   -0.190310
C     -0.915440   -1.118473    0.066045
C     -1.327002    0.759092   -1.163546
O      3.373051    3.181780    0.069477
O     -2.732777    2.110207    0.132496
O      0.781370    2.938256   -0.090072
O     -0.943887    1.905299   -1.779283
O     -1.286963   -0.282284   -2.084169
H      5.188214   -1.180711    0.756736
H      3.870257   -2.166711   -0.070050
H      3.826387   -1.946276    1.722079
H     -4.660330    1.246484    0.841116
H     -3.614945    0.489174    2.093279
H     -4.988276   -0.491616    1.381894
H      2.592317    0.264797   -1.605159
H      1.253592    1.230915   -2.245324
H      1.034408   -0.528679   -2.023447
H      1.763478   -2.133703   -0.739308
H      2.033282   -2.560228    0.960983
H     -0.247928   -3.128381    0.087070
H     -0.112845   -2.326850    1.664804
H      4.872604    1.057221    0.395486
H     -2.075149   -0.703554    1.847117
H     -2.610654   -2.126587    0.904271
H     -2.320403   -1.882714   -1.442723
H     -0.624292   -2.245664   -1.795338
H     -3.873489   -0.918312   -0.537828
H      1.443292   -0.301685    1.708905
H     -3.385505    1.129187   -1.497233
H      1.169214    1.789131    1.518741
H     -0.791111    0.853082    0.876085
H     -3.483107    2.705149   -0.112128
H      1.383125    3.592274   -0.542856
H     -1.571814    2.658629   -1.659902
