42

C      3.149442    1.026576    1.304006
C     -1.476002   -1.630764   -1.935495
C     -1.551899    0.500882    2.582131
C     -3.253575    0.116467    0.856382
C     -0.138685   -2.676116    0.719251
C      1.416441    0.035391   -0.303966
C      0.480551    0.015535    0.648669
C      3.664681    0.540304   -0.989988
C     -1.220390    0.795923   -1.594853
C     -1.632109    1.914922    0.619142
C      2.747834    0.513294   -0.074657
C     -1.206458   -0.453542   -1.083973
C     -0.946671    1.893479   -0.689960
C      3.484735    0.104437   -2.338443
C     -1.811674    0.502872    1.096569
C     -0.910110   -0.497966    0.359796
O     -0.134137    2.789244   -1.055828
O      4.450610    0.170482   -3.169150
O      2.324867   -0.397789   -2.841820
O     -1.031791   -1.683266    0.996793
H      2.662179    0.379392    2.082088
H      2.868580    2.083198    1.386960
H      4.244660    0.928039    1.365262
H     -2.146718   -2.307790   -1.362908
H     -0.582969   -2.106141   -2.359943
H     -2.091679   -1.350990   -2.832290
H     -2.519117    0.752544    3.075506
H     -0.839613    1.298443    2.885563
H     -1.258155   -0.493925    2.965667
H     -3.523110   -0.681094    1.573304
H     -3.893856    0.993379    1.095661
H     -3.370349   -0.200031   -0.194945
H      0.927546   -2.364012    0.946323
H     -0.260722   -3.560038    1.424181
H     -0.231543   -3.139485   -0.274497
H      1.087537   -0.333007   -1.242187
H      0.702447    0.365749    1.633574
H      4.693960    0.936615   -0.721840
H     -1.425231    0.903630   -2.637615
H     -0.957241    2.435221    1.348936
H     -2.610884    2.456972    0.547065
H      2.118618   -0.577034   -3.808472
