57

C     -4.971022   -0.339216    1.282758
C     -4.779415    1.108072    1.517903
C      5.771187    0.621991   -1.116530
C      6.445307   -1.135295    0.313381
C      7.007400    0.686157   -1.723389
C      7.675216   -1.052318   -0.309184
C      1.324570   -0.475559    1.208056
C      0.870381   -2.109743   -0.559108
C      0.183318    0.373004    0.669253
C     -0.474705   -1.796905    0.061117
C      4.096206   -0.228790    0.456124
C     -3.748059    3.143328    1.146448
C     -5.442789   -1.199011   -0.934000
C     -3.831836   -1.419046   -2.653700
C     -1.592780    3.572489    0.198888
C      5.466295   -0.268507   -0.107530
C     -4.479158   -0.708600   -0.084925
C     -3.593718    1.767132    1.018730
C     -2.781648    4.042830    0.751651
C     -5.130931   -1.559734   -2.226392
C     -2.810156   -0.929871   -1.847180
C      3.191379   -1.124798   -0.265602
C     -3.173108   -0.589893   -0.579485
C     -2.371142    1.358802    0.453649
C     -2.070243   -0.063634    0.243298
Br    -3.058953    5.919492    0.955746
Cl    -6.369515   -2.188622   -3.311199
F     -1.555353   -0.789837   -2.338353
N     -1.447162    2.244988    0.077233
N      1.844496   -1.243053    0.101776
N     -0.756439   -0.369581   -0.148645
N      7.948148   -0.180144   -1.286126
O      3.624421   -1.806368   -1.237229
O      9.190144   -0.125276   -1.886393
H     -6.040717   -0.586235    1.309634
H     -4.420986   -0.944940    2.059186
H     -4.813512    1.314485    2.636812
H     -5.719678    1.635318    1.161734
H      5.015619    1.329090   -1.478839
H      6.226462   -1.837306    1.099354
H      7.197297    1.406330   -2.514459
H      8.475432   -1.730057    0.004650
H      2.073616    0.251095    1.599061
H      0.983360   -1.048415    2.064647
H      1.147026   -3.156441   -0.418683
H      0.800323   -1.899808   -1.625928
H     -0.268547    0.849741    1.558053
H      0.588260    1.181509    0.018406
H     -1.220402   -2.448239   -0.381016
H     -0.497261   -2.042278    1.164192
H      3.768541    0.832191    0.448887
H      4.200647   -0.499780    1.542221
H     -4.654049    3.574735    1.570800
H     -6.465238   -1.294861   -0.554172
H     -3.564469   -1.700753   -3.679374
H     -0.801382    4.239108   -0.127441
H     -2.210680   -0.558973    1.275914
