39

C     -1.983758   -1.710098    0.782320
C     -3.107904   -0.245008   -0.745768
C     -0.342122   -0.938110   -1.741849
C      4.620451   -0.044187   -0.012984
C      3.874963    1.053353   -0.401400
C      3.987959   -1.113367    0.526613
C      2.499880    1.039554   -0.230249
C      2.629160   -1.097767    0.682778
C     -2.051947    1.842385    0.004351
C     -1.027453    1.374144   -1.019668
C     -0.264520    1.003197    1.372579
C      1.794872   -0.010628    0.310334
C     -1.756668    0.798545    1.094674
C     -1.886520   -0.400058    0.161361
C     -0.597485   -0.044586   -0.608289
C      0.373876   -0.065176    0.509080
O      0.172299   -1.203398    1.352854
H     -1.378124   -2.544993    0.333241
H     -1.970691   -1.741624    1.913774
H     -3.026316   -2.163641    0.639810
H     -3.420933   -1.282875   -1.091700
H     -2.965549    0.303909   -1.652128
H     -4.005009    0.068469   -0.135507
H      0.489898   -1.650107   -1.494435
H     -1.213946   -1.573952   -1.998681
H      0.022979   -0.363396   -2.617334
H      5.695843   -0.053483   -0.140701
H      4.412072    1.887510   -0.830459
H      4.552802   -1.994750    0.841079
H      1.978575    1.908950   -0.545479
H      2.171935   -1.977605    1.128366
H     -1.833299    2.837691    0.436129
H     -3.069224    1.852041   -0.340222
H     -1.380918    1.409265   -2.065497
H     -0.252569    2.124074   -0.965874
H     -0.123025    0.854137    2.450843
H      0.082412    2.008688    1.121415
H     -2.388584    0.822946    1.937999
H      0.686586   -0.970050    2.185140
