21

C      1.427755   -1.107053    0.925161
C      0.218285   -1.347038    0.447959
C     -1.851808   -0.388097   -0.343750
C     -1.932283    0.705519    0.671736
C      1.491813    1.196848   -0.167589
C      2.186076    0.025699    0.413755
C      0.026802    0.998191   -0.321951
C     -0.339340   -0.465714   -0.590617
O      3.434922    0.008998    0.466136
O     -0.044073   -0.848762   -1.877548
O     -0.674841    1.209879    0.876042
H      1.890326   -1.731271    1.698564
H     -0.347598   -2.191765    0.829053
H     -2.264685   -1.346311   -0.026022
H     -2.298310   -0.106439   -1.324101
H     -2.635848    1.505307    0.422788
H     -2.310609    0.257250    1.637467
H      1.930845    1.359607   -1.182818
H      1.727581    2.076205    0.454662
H     -0.404940    1.601509   -1.119940
H      0.769929   -1.412564   -1.888986
