66

C      8.268169   -0.654520    3.188178
C      7.729911   -0.443049    1.788195
C      6.599320   -1.425709    1.585018
C      5.985039   -1.308846    0.204784
C     -0.461781    2.195921   -1.441713
C     -1.533568    1.133788   -1.354268
C      0.559499    1.853394   -2.451374
C     -2.492522    1.627079   -0.322595
C      1.247301    0.554782   -2.099278
C     -3.745367    1.843211   -0.632337
C      5.430408    0.045196   -0.065040
C      2.283424    0.336262   -3.192965
C     -4.684423    2.332259    0.394371
C      4.832615    0.139028   -1.435452
C      3.045911   -0.930925   -2.934908
C     -5.799207    1.273682    0.523940
C     -6.976862   -0.889232    2.340585
C      3.699309   -0.769780   -1.594802
C     -5.136678   -0.027637    0.940117
C     -5.482604   -2.426283    1.250732
C     -6.196813   -1.088036    1.084758
N     -6.958435   -1.175225   -0.117132
O     -7.777408    0.217131    2.400150
O      3.266387   -1.402466   -0.669293
O     -4.291864   -0.456131   -0.130308
O     -5.674374   -3.289176    0.381917
O     -4.667553   -2.594940    2.357454
H      9.196316   -1.268937    3.087802
H      8.576464    0.288897    3.675300
H      7.545786   -1.237546    3.822961
H      7.290931    0.598759    1.797027
H      8.552453   -0.534750    1.079682
H      5.841306   -1.248316    2.353367
H      7.009522   -2.450943    1.722085
H      6.830888   -1.521345   -0.517155
H      5.278981   -2.144661    0.076064
H     -0.038771    2.346639   -0.420518
H     -0.921963    3.179895   -1.725579
H     -1.110046    0.152209   -1.055833
H     -2.070611    1.065874   -2.318820
H      1.350427    2.637597   -2.569248
H      0.139308    1.710623   -3.480338
H     -2.136450    1.801146    0.673282
H      1.741135    0.675337   -1.114549
H      0.531912   -0.293791   -2.069231
H     -4.108126    1.667609   -1.631840
H      6.155329    0.863976    0.125805
H      4.604385    0.207114    0.686825
H      2.932293    1.228889   -3.207578
H      1.800394    0.219833   -4.183795
H     -5.109953    3.319326    0.120899
H     -4.142808    2.417967    1.355826
H      4.585136    1.195227   -1.703760
H      5.629016   -0.177215   -2.176726
H      2.379141   -1.801919   -2.935886
H      3.832874   -1.121964   -3.679108
H     -6.232034    1.090021   -0.479735
H     -6.575643    1.634049    1.183037
H     -6.192460   -0.737797    3.153689
H     -7.552878   -1.821370    2.563978
H     -4.493761    0.075727    1.836020
H     -6.938723   -2.113943   -0.565374
H     -7.897883   -0.750083   -0.077188
H     -8.436209    0.209709    1.665651
H     -4.838453   -0.604863   -0.941750
H     -4.075059   -3.426759    2.438090
