48

C      5.238744    1.189407    0.187437
C      3.497712    2.607550   -0.697359
C      0.584882   -3.240933    0.804413
C      2.750565   -2.216087    0.386535
C      3.760426   -1.159064    0.121714
C      1.893434    0.427586    0.564734
C     -3.149008    2.759450   -0.264226
C      4.009011    1.288680   -0.247528
C      1.467436   -2.034649    0.538014
C      3.107564    0.130184   -0.302885
C      0.869019   -0.680997    0.452511
C     -2.718869    1.354465    0.028039
C     -3.878289    0.443468   -0.154551
C     -3.490212   -1.035185   -0.099490
C     -2.241148   -1.160390   -0.963586
C     -1.212265   -0.254595   -0.369829
O     -3.459601    2.874757   -1.616503
O     -4.755592    0.635612    0.931016
O     -4.473659   -1.802526   -0.673626
O     -1.855535   -2.453595   -1.176085
O      0.086236   -0.511635   -0.712880
O     -1.609409    1.056589   -0.730804
H      5.862935    2.082696    0.209899
H      5.708341    0.291084    0.531193
H      2.839440    2.985343    0.136714
H      2.831053    2.511260   -1.582712
H      4.324523    3.310901   -0.864555
H      1.062991   -3.911598    1.544952
H     -0.343070   -2.861326    1.236406
H      0.350057   -3.740963   -0.154036
H      3.135115   -3.241192    0.458942
H      4.312374   -1.023867    1.077828
H      4.445560   -1.503216   -0.655532
H      1.445193    1.358524    0.186041
H      2.210450    0.485297    1.625531
H     -2.304379    3.469511   -0.073930
H     -3.981471    3.111075    0.376459
H      2.711062   -0.037671   -1.343765
H      0.207146   -0.561968    1.350493
H     -2.420045    1.306126    1.112066
H     -4.473783    0.639798   -1.060477
H     -3.220077   -1.312691    0.925663
H     -2.541920   -0.735209   -1.960088
H     -1.330313   -0.252692    0.753813
H     -2.658284    2.945296   -2.177089
H     -5.195269    1.516232    0.887633
H     -5.253129   -1.973750   -0.115751
H     -2.145942   -3.075095   -0.461285
