48

C      5.218176   -1.081157   -0.776348
C      3.326224   -2.477573   -1.368022
C      0.914574    3.273186    0.976072
C      2.915304    2.200575    0.224815
C      3.859411    1.147202   -0.219356
C      2.007480   -0.380194    0.326212
C     -3.015719   -2.884319    0.150394
C      3.911081   -1.156841   -0.951951
C      1.658049    2.017406    0.555582
C      3.009512   -0.003770   -0.752513
C      0.986435    0.707798    0.530338
C     -2.784595   -1.404236    0.264632
C     -3.863335   -0.601836   -0.433957
C     -3.728269    0.803775    0.093959
C     -2.331859    1.291739   -0.226995
C     -1.288015    0.313117    0.196185
O     -4.255998   -3.211148    0.696225
O     -5.130753   -1.126910   -0.210873
O     -4.693100    1.658214   -0.389785
O     -2.184232    2.475308    0.514599
O     -0.050361    0.628143   -0.399881
O     -1.582399   -0.992233   -0.250408
H      5.728269   -0.177138   -0.478833
H      5.865889   -1.947434   -0.925960
H      4.110061   -3.129759   -1.755816
H      2.593494   -2.261703   -2.168593
H      2.875105   -2.979726   -0.487964
H      1.614626    3.983266    1.461730
H      0.336553    3.695585    0.154893
H      0.219296    2.935352    1.768650
H      3.371961    3.220684    0.261728
H      4.501373    1.535436   -1.019764
H      4.430887    0.814233    0.688039
H      1.565434   -1.353920    0.125728
H      2.606923   -0.463761    1.274952
H     -2.946021   -3.259500   -0.875712
H     -2.259389   -3.429870    0.750748
H      2.494630    0.259520   -1.673751
H      0.572875    0.508082    1.567164
H     -2.803035   -1.133276    1.341033
H     -3.596325   -0.580810   -1.518271
H     -3.764875    0.715475    1.216383
H     -2.198115    1.478532   -1.312263
H     -1.153042    0.209875    1.289177
H     -4.189050   -3.807487    1.481937
H     -5.782385   -0.398213   -0.049091
H     -5.031744    2.185456    0.379651
H     -2.061002    2.184857    1.459861
