47

C     -5.018316   -1.290205   -0.158537
C     -2.026576   -2.419479    2.602994
C      0.242047    2.638318    3.347190
C     -0.702540    1.730421    2.961044
C      2.609138   -0.666580   -2.342817
C      3.440907   -0.921337   -3.413177
C      1.568017    1.982405    1.527039
C      2.430893    3.712809    2.979518
C     -2.818624   -0.659295   -0.432690
C     -1.051488   -2.100387    0.500406
C      1.412535    2.793016    2.637484
C      0.637750    1.068140    1.123055
C     -0.528243    0.918321    1.834473
C      2.349966    0.632918   -1.992106
C      4.000507    0.128977   -4.116042
C      0.879455    0.217189   -0.106386
C     -0.526454    0.025904   -0.689928
C     -1.455143   -0.682762    0.273596
N      3.286899    4.461085    3.271970
N      1.609406    0.999536   -1.035180
N      2.932852    1.606785   -2.725623
N      3.727060    1.365201   -3.747591
O      4.850576   -0.094581   -5.208638
O     -0.490771   -0.586151   -1.936188
O     -3.756190   -1.256961    0.390128
O     -1.874205   -2.809126    1.310185
O     -1.508602    0.010265    1.477268
H     -5.680756   -1.783591    0.578748
H     -5.347482   -0.260463   -0.426574
H     -5.005280   -1.969400   -1.045404
H     -1.076230   -2.406114    3.186008
H     -2.659486   -3.228467    3.097050
H     -2.556073   -1.495775    2.814779
H      0.127944    3.281488    4.224010
H     -1.608447    1.640324    3.545922
H      2.142582   -1.447295   -1.757139
H      3.662822   -1.935676   -3.709838
H      2.503828    2.101999    0.956652
H     -2.774476   -1.301745   -1.354400
H     -3.096660    0.343808   -0.783615
H      0.018647   -2.112323    0.819342
H     -1.063464   -2.607087   -0.504702
H      1.346835   -0.732327    0.184188
H     -0.931097    1.047252   -0.840700
H      2.770965    2.627812   -2.503954
H      5.687118   -0.626943   -5.004198
H     -0.682146    0.060097   -2.679473
