47

C     -4.145627   -1.595676    1.931097
C     -1.312808    3.963261    0.433122
C     -1.155274   -0.894386   -4.236284
C     -1.849592   -0.375425   -3.147194
C      2.830502   -0.824069    1.481594
C      3.903803   -0.788826    2.346389
C      0.669612   -1.355619   -2.757425
C      0.840153   -1.922647   -5.156739
C     -2.632624    0.095872    1.401921
C     -0.917954    1.724377    0.556691
C      0.111585   -1.387836   -4.043183
C     -0.013628   -0.844960   -1.689314
C     -1.276685   -0.355836   -1.896536
C      2.619221    0.218149    0.581569
C      4.770834    0.281416    2.319616
C      0.629092   -0.833213   -0.338273
C     -0.444287   -0.731505    0.728357
C     -1.460728    0.328612    0.460209
N      1.444673   -2.350192   -6.046846
N      1.620715    0.189170   -0.227077
N      3.500990    1.229717    0.608226
N      4.528861    1.255255    1.441251
O      5.848767    0.315907    3.187832
O     -1.108142   -1.965108    0.730759
O     -3.084665   -1.180554    1.174515
O     -1.889953    2.687474    0.330490
O     -1.977552    0.160261   -0.843905
H     -5.005049   -0.915644    1.735345
H     -3.937534   -1.751492    2.998211
H     -4.475158   -2.582431    1.488152
H     -2.068794    4.734202    0.260023
H     -0.520397    4.068327   -0.336191
H     -0.817220    4.010181    1.410881
H     -1.613055   -0.903590   -5.209295
H     -2.839568    0.002593   -3.336470
H      2.185785   -1.664756    1.532126
H      4.051455   -1.594919    3.031402
H      1.661072   -1.747006   -2.627054
H     -2.351361    0.281658    2.459160
H     -3.458195    0.797083    1.171577
H     -0.439816    1.932098    1.535466
H     -0.113279    1.832954   -0.198054
H      1.128058   -1.809242   -0.176891
H      0.035666   -0.641907    1.719380
H      3.387249    2.029608   -0.046140
H      6.242633    1.198274    3.467623
H     -1.101782   -2.319607   -0.210110
