90

C      4.375342    2.697459    1.160267
C     -3.595794   -2.351831    0.233828
C      8.826820   -2.006198    0.295907
C     -8.471011    0.032982   -2.157067
C      5.171134   -4.087058    0.431915
C     -5.989689    3.269716   -1.654966
C      0.256337    2.353553   -0.750025
C      0.040781    0.523595   -2.156714
C      0.236295    0.024221    2.599984
C     -0.285261   -1.302605    0.756675
C     -1.136547    2.348170   -0.540885
C     -1.362015    0.526637   -1.942101
C      1.558902   -0.311108    2.414845
C      1.063973   -1.638905    0.577806
C      5.402292    1.903629   -1.913347
C     -5.665867   -1.564989    2.435793
C      4.751083    3.030134   -1.177255
C     -4.595422   -2.598600    2.339664
C      2.409637    1.389523   -1.719640
C     -2.156890    0.107065    1.725336
C      0.878258    1.426265   -1.565976
C     -0.783488   -0.457379    1.749539
C      2.039757   -1.125998    1.427140
C     -1.967982    1.418909   -1.137428
C      5.378525    0.658814   -1.126811
C     -5.682046   -0.635864    1.283952
C      3.194293    1.311544   -0.429702
C     -3.388957   -0.597233    1.870342
C      4.260282    0.279773   -0.344705
C     -4.467335   -0.064572    0.873754
C      6.523014   -0.131731   -1.195743
C     -6.887629   -0.389276    0.666445
C      4.307075   -0.882101    0.354193
C     -4.321371    0.794008   -0.174985
C      6.573703   -1.312136   -0.488911
C     -6.775719    0.491685   -0.416367
C      5.482161   -1.651064    0.255754
C     -5.586796    1.042463   -0.809298
N      3.874992    2.603118   -0.170634
N     -3.459711   -2.015108    1.621068
O      7.613322    0.292151   -1.993588
O     -8.105592   -0.908356    1.010830
O      7.722277   -2.104076   -0.561820
O     -7.986768    0.767485   -1.064910
O      5.605367   -2.874166    0.957050
O     -5.714125    1.887844   -1.902835
O      3.364407   -1.466358    1.186127
O     -3.353719    1.490505   -0.818024
H      4.719584    1.739047    1.550519
H      3.535336    3.084222    1.793298
H      5.194409    3.457130    1.153539
H     -3.611917   -1.467085   -0.423316
H     -4.582927   -2.833757    0.084827
H     -2.853824   -3.111819   -0.090350
H      9.560074   -1.232330   -0.012864
H      9.352549   -2.981041    0.268507
H      8.563358   -1.792672    1.334406
H     -8.202460    0.626090   -3.084124
H     -8.068771   -0.995705   -2.181416
H     -9.580948    0.063685   -2.102904
H      5.975828   -4.823492    0.281430
H      4.465506   -4.551881    1.180861
H      4.654685   -3.970557   -0.555908
H     -6.817562    3.400486   -0.926237
H     -5.075861    3.719279   -1.164614
H     -6.241063    3.815783   -2.561640
H      0.647990    3.230750   -0.156704
H      0.277656   -0.332652   -2.894158
H      0.149877    0.647202    3.531469
H     -0.837694   -1.915971   -0.032014
H     -1.445036    3.180855    0.152739
H     -1.886377   -0.307246   -2.543922
H      2.261807    0.174977    3.203861
H      1.241732   -2.364083   -0.280510
H      4.901441    1.753402   -2.893267
H      6.499130    2.146313   -2.099772
H     -6.673425   -2.042248    2.567134
H     -5.533091   -0.945297    3.360220
H      4.189127    3.644507   -1.922913
H      5.517194    3.699596   -0.686373
H     -4.296434   -3.005628    3.344511
H     -4.987367   -3.421446    1.666725
H      2.791027    2.303434   -2.243544
H      2.801938    0.589247   -2.364566
H     -2.316684    0.492963    0.620930
H     -2.289573    1.181042    2.120838
H      2.508945    1.201315    0.378743
H     -3.829708   -0.398630    2.856810
H      8.412786   -0.326537   -1.996218
H     -8.261552   -1.525782    1.751486
