90

C     -3.749679    4.236581   -0.275053
C      3.926067   -2.595662    2.696594
C     -7.432226   -3.360059    0.335708
C      7.925493    2.416802   -0.648251
C     -4.495270   -3.811119   -1.435688
C      5.005012    3.682718    0.184096
C      0.069339    2.620298   -0.747112
C     -0.763120    1.041787    0.743696
C      0.707497   -0.887071   -2.018758
C      0.075059   -2.324665   -0.281205
C      1.369675    2.436943   -0.181147
C      0.539815    0.872105    1.295922
C     -0.646712   -0.624001   -2.233330
C     -1.299237   -2.033814   -0.527542
C     -5.854302    1.865729    1.239235
C      5.454116   -2.624593   -0.127728
C     -5.634855    3.115599    0.445624
C      4.541237   -3.542233    0.617053
C     -2.355221    2.057115   -0.890735
C      2.569176   -2.055193   -0.705843
C     -1.015587    1.919367   -0.287724
C      1.094892   -1.758638   -1.016221
C     -1.691732   -1.177860   -1.503673
C      1.634719    1.565255    0.843930
C     -5.628895    0.704690    0.313711
C      5.298840   -1.187618    0.265077
C     -3.611638    1.891875   -0.105779
C      3.002642   -1.660605    0.675966
C     -4.377949    0.624645   -0.339907
C      4.057133   -0.667161    0.659313
C     -6.622815   -0.221387    0.247936
C      6.445372   -0.426575    0.206380
C     -4.139680   -0.476929   -1.092392
C      3.994783    0.670050    1.000124
C     -6.389908   -1.360277   -0.534785
C      6.392967    0.890740    0.541971
C     -5.192756   -1.451982   -1.162246
C      5.184033    1.415389    0.929735
N     -4.521435    2.984911   -0.402950
N      3.515883   -2.877878    1.341594
O     -7.848096   -0.129428    0.892874
O      7.665074   -0.986204   -0.193206
O     -7.390962   -2.299032   -0.608902
O      7.548008    1.705369    0.495388
O     -5.026865   -2.625966   -1.939602
O      5.239131    2.786832    1.258608
O     -3.018333   -0.826976   -1.810611
O      2.912712    1.378307    1.402618
H     -2.820653    4.087921    0.310688
H     -3.602062    4.749352   -1.226033
H     -4.328385    4.988886    0.353000
H      3.166607   -2.909415    3.442105
H      4.891327   -3.100794    2.946163
H      4.073983   -1.511499    2.802344
H     -7.568531   -4.322591   -0.194862
H     -8.325223   -3.190764    0.966049
H     -6.485891   -3.415994    0.894955
H      7.301316    2.246473   -1.527466
H      7.964232    3.496183   -0.400922
H      8.963443    2.111387   -0.911879
H     -3.487058   -4.046046   -1.836647
H     -4.383079   -3.698327   -0.337516
H     -5.201816   -4.675713   -1.575837
H      5.808275    4.452840    0.112359
H      4.047759    4.246286    0.302282
H      4.944408    3.182258   -0.795856
H      0.229676    3.397772   -1.556379
H     -1.411261    0.328035    1.314058
H      1.325998   -0.294354   -2.766856
H      0.078141   -3.065606    0.574185
H      2.087579    3.123911   -0.707261
H      0.506651    0.119705    2.123639
H     -0.784460    0.103966   -3.085628
H     -1.952211   -2.632752    0.187273
H     -5.061890    1.853973    2.026479
H     -6.853726    1.893868    1.657543
H      5.402557   -2.752939   -1.248535
H      6.515515   -2.947763    0.095002
H     -5.416780    3.927990    1.202460
H     -6.575968    3.416071   -0.108011
H      4.163949   -4.381446   -0.042321
H      5.123907   -4.119425    1.401503
H     -2.410724    1.414735   -1.822796
H     -2.567630    3.072380   -1.381029
H      3.318386   -1.598080   -1.335905
H      2.795156   -3.158925   -0.899486
H     -3.346332    2.011124    0.965517
H      2.110456   -1.431494    1.286964
H     -8.189039    0.570645    1.468250
H      8.491995   -0.432010   -0.234354
