56

C      8.232026   -1.622937   -0.053890
C     -0.878894    1.412396    1.763263
C      3.782420    4.125877   -0.868624
C     -6.007322    2.183552    0.853172
C     -2.451752   -4.030455   -0.399531
C     -6.880456   -2.280868   -0.337070
C      6.754079   -1.358247    0.088679
C      6.256502   -0.161948   -0.141570
C      3.880662   -0.716476    0.333888
C      2.538269   -0.332517    0.427304
C      4.464592    1.479794   -0.300643
C     -3.644320    0.783246    0.112148
C     -2.515949   -1.253855   -0.287579
C     -0.265967    0.723697    0.558574
C      4.847362    0.186995   -0.029911
C     -2.498878    0.117433   -0.246618
C      2.159071    0.960963    0.155899
C      3.152613    1.844054   -0.206571
C     -4.815028    0.084504    0.432586
C     -3.659606   -1.973879    0.024200
C     -1.257490    0.837988   -0.587079
C     -4.797713   -1.289769    0.381425
O     -0.686374    0.282313   -1.753505
O      2.798531    3.181778   -0.492607
O     -5.940355    0.787762    0.786702
O     -3.636659   -3.375949   -0.029544
O     -5.951190   -1.976305    0.697209
O      0.885721    1.413927    0.222205
H      8.595394   -1.819106    0.966545
H      8.320364   -2.549738   -0.684113
H      8.685115   -0.755830   -0.537137
H     -1.813854    0.946026    2.095869
H     -0.117952    1.310257    2.585510
H     -0.955084    2.499654    1.568351
H      3.404789    5.145844   -0.917552
H      4.622111    4.142392   -0.118067
H      4.136898    3.840133   -1.880349
H     -5.689735    2.682821   -0.073283
H     -7.081487    2.458475    1.015638
H     -5.457305    2.620008    1.707229
H     -2.123205   -3.604097   -1.388760
H     -1.665203   -3.730291    0.328650
H     -2.557306   -5.116601   -0.435704
H     -7.196875   -3.330963   -0.159521
H     -6.436289   -2.182336   -1.342682
H     -7.720577   -1.561818   -0.275051
H      6.108073   -2.150010    0.379049
H      6.953180    0.622150   -0.437181
H      4.152569   -1.739624    0.552542
H      1.839669   -1.079121    0.713750
H      5.192797    2.245468   -0.596270
H     -3.641487    1.877565    0.148006
H     -1.616690   -1.805523   -0.570205
H     -0.109430   -0.342037    0.804176
H     -1.439424    1.906993   -0.817766
H     -0.252953   -0.563761   -1.483806
