46

C     -1.730438    0.720837    3.621444
C     -4.941666   -0.605704   -1.448927
C      0.648574    3.658643   -2.264466
C     -0.494167    3.106562   -1.728688
C      4.541767   -2.969794    0.274008
C      3.676560   -2.116216   -0.383569
C      1.877694    1.885069   -1.277120
C      3.058523    3.611211   -2.593494
C     -2.198576    0.057153    1.467199
C     -2.804153   -0.596898   -0.796087
C      1.858252    3.049190   -2.043088
C      0.740947    1.327504   -0.738613
C     -0.467782    1.958285   -0.974204
C      4.353592   -3.149229    1.626731
C      2.658844   -1.467429    0.298677
C      0.807127    0.069457    0.082050
C     -0.461338   -0.717129   -0.161687
C     -1.711913    0.085427    0.040303
Cl     5.432241   -4.225016    2.494257
N      4.031048    4.089145   -3.045317
N      1.906095   -0.695538   -0.391101
N      3.352798   -2.501461    2.257611
N      2.528805   -1.683747    1.611821
O     -0.449706   -1.880994    0.571429
O     -1.318046    0.726812    2.312827
O     -4.015152    0.077697   -0.662158
O     -1.588079    1.392450   -0.432683
H     -2.714774    1.206485    3.751080
H     -0.969681    1.252537    4.227405
H     -1.818116   -0.354920    3.936344
H     -4.590168   -0.599551   -2.522093
H     -5.960527   -0.169524   -1.372269
H     -4.919362   -1.666501   -1.132720
H      0.587541    4.550873   -2.844843
H     -1.433407    3.620445   -1.927287
H      5.316324   -3.451580   -0.294197
H      3.805772   -1.961495   -1.441806
H      2.856599    1.438930   -1.128899
H     -3.171391    0.604007    1.494216
H     -2.404965   -0.982292    1.793717
H     -2.920122   -1.617177   -0.375928
H     -2.512615   -0.619074   -1.869335
H      0.916963    0.391397    1.124058
H     -0.437064   -1.002107   -1.253752
H      1.763897   -1.191443    2.105450
H     -0.686754   -2.655300    0.013703
