47

C     -5.334689   -1.596770    2.377855
C      2.264486   -3.297077    0.426476
C     -4.625126    1.296768   -0.034585
C     -2.357923    1.342007    0.949765
C      5.880464   -0.198559    1.699473
C     -4.920105   -0.848231    1.153921
C     -3.180637    0.987772   -0.245976
C      5.033973    0.424643    0.740058
C      3.711111   -0.222129    0.455784
C      0.685792    0.158926   -1.590124
C     -2.747240    0.449032   -1.360252
C      2.758203    0.295771   -0.486763
C     -0.365030   -0.703689   -2.077134
C     -0.357552    1.080411   -1.090094
C     -3.587764    0.088836   -2.503161
C      6.655642    2.041719    0.470272
N      7.231459    3.078966    0.027254
N      5.440400    1.499960    0.170023
N      1.624675   -0.358574   -0.655930
N      3.408226   -1.327035    1.108187
N     -1.345275    0.155171   -1.570557
O     -4.491464   -1.473561    0.164151
O      2.969597    1.439527   -1.220886
O     -0.362057   -1.804097   -2.712813
O     -4.806723    0.272879   -2.519227
O     -3.044888   -0.491032   -3.648749
O      2.203344   -1.945313    0.871157
O     -5.010123    0.529147    1.116293
S     -0.608974    1.084658    0.713739
S      7.307538    0.911560    1.696687
Na     0.000000    0.000000    0.000000
H     -6.049099   -2.393850    2.038242
H     -4.425396   -2.057789    2.811293
H     -5.887315   -0.953678    3.081746
H      2.677917   -3.348550   -0.607654
H      1.263121   -3.747209    0.398001
H      2.966393   -3.828743    1.107073
H     -5.295591    1.099549   -0.820908
H     -4.692378    2.380528    0.333895
H     -2.759161    0.821790    1.854600
H     -2.522190    2.460845    1.069480
H      5.745876   -1.079660    2.281925
H      1.237157    0.646789   -2.434172
H     -0.356030    2.100873   -1.526625
H      6.843527    3.718639   -0.677922
H      4.875668    2.077050   -0.591012
H     -3.651837   -0.768272   -4.427541
