50

C      5.549195    1.476259    0.707447
C      2.328030   -1.892255    1.251562
C      0.246307   -1.257301   -2.697521
C      4.267364    1.222542    1.040955
C     -3.076111    2.130974    2.198796
C     -2.294703    1.886940    1.066496
C     -3.590393    1.069647    2.900913
C     -2.731849   -0.929886   -1.968980
C      3.289485    1.250939   -0.053359
C     -3.564553   -1.099062   -2.988932
C     -2.542392   -0.457902    1.340173
C      1.721836    0.194620   -1.391483
C      0.418682   -0.309910    0.900371
C     -2.373421    1.311923   -2.612543
C      1.890818   -0.478589    0.902277
C      0.696012   -0.906538   -1.331622
C     -2.027421    0.608726    0.637072
C     -2.118591    0.230463   -1.734746
C     -3.319646   -0.230946    2.465779
C     -1.183821    0.439091   -0.573752
N      2.599025   -0.003391   -0.242036
N     -0.268464   -0.621650   -0.343462
O     -3.825314   -1.326143    3.154302
S     -3.536474    0.581077   -3.790321
H      5.861847    1.691398   -0.304694
H      6.301300    1.463900    1.491176
H      1.447887   -2.592802    1.303415
H      3.097943   -2.260222    0.528513
H      2.805845   -1.970784    2.248937
H     -0.208647   -0.438907   -3.272580
H     -0.301132   -2.224287   -2.741987
H      1.199282   -1.482289   -3.284955
H      4.025738    1.019717    2.062390
H     -3.297725    3.128082    2.552706
H     -1.923759    2.773352    0.564513
H     -4.209153    1.191287    3.794995
H     -2.563153   -1.848611   -1.291430
H      3.729325    1.521285   -1.031047
H      2.482476    1.995421    0.217291
H     -4.182330   -1.918199   -3.399994
H     -2.363199   -1.488857    1.051217
H      1.326616    1.207634   -1.334508
H      2.335996    0.125900   -2.325789
H      0.025613   -0.963219    1.737431
H      0.175209    0.718480    1.239295
H     -2.013901    2.353345   -2.655709
H      2.260047    0.142161    1.776586
H      1.269153   -1.816748   -0.956716
H     -0.593626    1.359940   -0.700394
H     -3.241251   -1.695432    3.893954
