42

C      2.729247   -1.724367   -0.578817
C      3.717643    0.489626   -0.571160
C     -3.979844   -2.043144    0.436811
C     -1.398527    2.300379   -0.701921
C      0.468686   -2.943246    1.329779
C      0.191287    2.186001    1.126791
C      1.425639    1.720849    0.423641
C     -2.287055   -1.002123   -1.305715
C     -0.902742   -0.432326   -1.092367
C     -1.984350   -0.676473    0.932695
C      2.370501   -0.262889   -0.550384
C     -2.760692   -1.246304    0.055846
C     -1.043464    1.511331    0.506312
C      1.653449    0.210730    0.650908
C      0.403638   -0.420573    1.071487
C     -0.835867    0.058590    0.299489
N      0.449343   -1.791223    1.208175
H      1.944066   -2.332057   -1.072457
H      3.634096   -1.903315   -1.240636
H      3.053989   -2.086522    0.404023
H      4.164506    0.497742    0.427014
H      3.541350    1.501158   -0.982113
H      4.355160   -0.067136   -1.268894
H     -3.836313   -2.560037    1.402093
H     -4.225345   -2.765235   -0.380456
H     -4.816431   -1.342456    0.537496
H     -1.973958    1.797658   -1.465206
H     -0.480169    2.708140   -1.186867
H     -1.986810    3.218550   -0.408560
H      0.223725    2.016987    2.207230
H      0.120338    3.282792    0.969431
H      1.322095    1.911225   -0.664294
H      2.286990    2.294246    0.770446
H     -2.943343   -0.348505   -1.906292
H     -2.249523   -1.974524   -1.877998
H     -0.632058    0.314098   -1.863256
H     -0.212145   -1.305030   -1.189209
H     -2.111597   -0.700993    2.021034
H      1.891090    0.052806   -1.516980
H     -1.856995    1.696925    1.269385
H      2.382562    0.177606    1.509907
H      0.187827   -0.018961    2.115941
