38

C      4.688479   -0.541141   -1.237578
C      1.131056    2.831432   -0.818889
C     -3.913490   -0.781836   -0.143430
C     -2.982987   -1.868657    0.361909
C     -3.272863    0.577649   -0.015948
C     -1.586457   -1.492729   -0.099832
C     -2.177112    0.592000    1.024757
C      1.207827   -0.881329    0.120598
C      3.436771   -1.118366   -0.677707
C      1.122065    2.394286    0.601612
C     -1.088530   -0.397105    0.804852
C      0.163382    0.205471    0.230713
N      2.458852   -0.336849   -0.433800
N      0.702502    1.272076    1.000764
O      3.320090   -2.469732   -0.421775
O      1.611283    3.290468    1.545408
H      4.457224    0.070038   -2.134206
H      5.419301   -1.335955   -1.503426
H      5.161563    0.066527   -0.426893
H      0.175854    3.374902   -1.076220
H      1.945291    3.593291   -0.990698
H      1.314485    2.015192   -1.517735
H     -4.896363   -0.860286    0.354795
H     -4.075682   -0.972133   -1.221041
H     -3.251671   -2.864060   -0.002776
H     -3.003085   -1.862303    1.470534
H     -4.045847    1.301358    0.309608
H     -2.905205    0.910501   -1.003432
H     -0.918993   -2.385399   -0.110206
H     -1.664864   -1.053616   -1.121417
H     -1.798418    1.645666    1.061466
H     -2.680882    0.315595    1.995400
H      0.915333   -1.712362   -0.554480
H      1.478898   -1.315545    1.103766
H     -0.798814   -0.909974    1.772346
H     -0.081396    0.504132   -0.824333
H      2.517979   -2.784673    0.109810
H      1.914427    2.983465    2.467483
