40

C      4.904440   -1.055339   -0.480305
C     -5.105930    1.058216   -0.092459
C      3.527027   -1.106426   -0.536790
C     -3.767931    1.297751    0.094261
C      5.559865   -0.406054    0.537253
C     -5.615845   -0.218846    0.011232
C      1.325566   -0.551961    0.381273
C      3.463567    0.152937    1.460612
C     -3.419415   -1.021588    0.493856
C     -1.504425    0.509006    0.571280
C      1.265949    0.675768   -1.807551
C      2.810178   -0.488852    0.454901
C     -2.927810    0.249765    0.387726
C      0.770696    0.612274   -0.394595
C      4.835946    0.223678    1.548344
C     -4.759043   -1.273956    0.309004
C     -0.714233    0.317748   -0.664670
C     -0.976666    1.176749   -1.795743
O      5.513703    0.869143    2.559452
O     -5.266419   -2.569747    0.416126
O     -2.074712    1.596289   -2.220023
O      0.238474    1.498218   -2.394642
H      5.469872   -1.542822   -1.263084
H     -5.743918    1.922710   -0.325799
H      3.026725   -1.635327   -1.366247
H     -3.388371    2.332914    0.015396
H      6.620080   -0.377663    0.563387
H     -6.653610   -0.396689   -0.134750
H      0.958508   -1.479152   -0.054553
H      0.956647   -0.440697    1.430347
H      2.899590    0.640971    2.244273
H     -2.776987   -1.878872    0.726891
H     -1.122785   -0.220645    1.328377
H     -1.278571    1.509733    0.990221
H      1.132622   -0.322068   -2.270810
H      2.254993    1.111148   -1.931392
H      0.909258    1.581385    0.077298
H     -0.712015   -0.738376   -1.030669
H      4.961513    1.319099    3.282523
H     -5.596531   -2.930420    1.301098
