32

C      3.853954    1.692276    0.839615
C     -1.215734   -1.760532   -0.089819
C     -2.560565   -1.497432    0.608027
C     -1.251551    0.526884    0.329792
C      1.702075    0.396350    0.629934
C     -3.669938    0.527123   -0.352508
C      3.006406    0.615465    0.253736
C     -0.405850   -0.700115    0.578223
C      3.546197   -0.201701   -0.708623
C      1.498355   -1.352147   -0.834540
C     -2.639801   -0.000020    0.631081
F     -2.994799    0.464281    1.885367
N      2.772530   -1.178202   -1.237674
N      0.935363   -0.575657    0.101834
O     -3.678485    1.915594   -0.266870
O      4.859127    0.003460   -1.100986
O      0.821676   -2.262985   -1.347702
H      3.172573    2.352388    1.421484
H      4.538814    1.220705    1.598890
H      4.402490    2.257846    0.084786
H     -0.896937   -2.794947    0.142941
H     -1.405684   -1.581447   -1.160896
H     -3.388449   -1.997404    0.113144
H     -2.400360   -1.839353    1.666184
H     -0.955591    1.327127    1.055268
H     -1.187851    0.864665   -0.712949
H      1.292252    1.052554    1.392380
H     -3.445105    0.182368   -1.381592
H     -4.650767    0.151209   -0.009469
H     -0.451254   -0.890748    1.680041
H     -4.376298    2.200685    0.350150
H      5.173207    0.881710   -1.474276
