42

C      1.497814    3.549328   -0.505553
C      1.935621   -3.298653    0.106500
C     -2.723859   -0.216663   -1.207911
C     -3.829251    0.233757    0.913121
C      2.740998   -0.151491    0.547873
C      2.405350    1.251903    0.165506
C      2.933905   -1.151576   -0.570531
C     -0.063116    1.731013   -0.448976
C      0.495239   -1.222772   -0.380059
C     -0.912412    1.475344    0.737580
C     -0.123054   -0.869697    0.679069
C      1.420633    2.026811   -0.173953
C      1.714423   -2.075738   -0.675450
C     -1.338586    0.020983    0.899597
C     -2.604222   -0.384805    0.285687
O     -2.742291   -1.781171    0.507299
H      2.044547    4.210911    0.094933
H      1.592860    3.697227   -1.596675
H      0.419619    3.959309   -0.334673
H      1.047816   -3.537716    0.736932
H      2.813060   -3.206164    0.784095
H      2.136765   -4.212628   -0.504125
H     -2.143750   -0.957888   -1.792227
H     -2.634325    0.820777   -1.553208
H     -3.799758   -0.488636   -1.440129
H     -4.704700   -0.217552    0.380760
H     -3.814250    1.317985    0.785411
H     -3.886348   -0.099427    1.973764
H      3.774670   -0.131518    1.128359
H      2.179045   -0.637937    1.336858
H      3.533566    1.658882    0.184575
H      3.803807   -1.815202   -0.445792
H      3.054835   -0.616402   -1.526363
H     -0.546071    2.710444   -0.876311
H     -0.278256    1.123072   -1.311855
H      0.220436   -0.961529   -1.476945
H     -1.860482    2.037637    0.794721
H     -0.322042    1.761773    1.630736
H      0.118163   -1.190995    1.748333
H      1.674281   -2.373420   -1.740902
H     -1.583367    0.015807    2.009646
H     -3.647315   -2.003381    0.130286
