75

C      6.383983   -1.473467   -1.340775
C     -0.385044   -2.460199    1.845074
C     -3.906208   -0.077149    1.923136
C      3.053637    0.689816    0.781426
C     -6.177195    1.260943   -0.198114
C     -5.990331   -0.163091   -0.526813
C     -1.920338   -1.775726   -0.197467
C      1.888625   -1.004433    2.368196
C     -5.064756    1.938652    0.547966
C     -0.392334   -1.818639   -0.470065
C      0.683871   -0.107283    2.501988
C      3.877566   -1.359240   -1.177495
C     -1.544262    1.789127    1.058327
C      6.554171    1.017781   -2.506195
C      5.132315   -0.718723   -1.581306
C      5.244824    0.463717   -2.137216
C     -2.225460   -0.345069    0.070531
C     -1.357054    0.310249    1.111559
C      1.746514   -1.481399    0.907192
C     -4.690470   -0.776278   -0.206215
C     -2.597199    2.286909    0.150071
C      2.636975   -0.530240   -1.248728
C      4.020195    1.205270   -2.373388
C      0.255134   -1.583405    0.825592
C     -3.633349   -0.000670    0.422670
C      2.051254   -0.232225    0.124124
C     -3.793023    1.453796   -0.057419
C      0.055899   -0.077764    1.129844
O      6.814908    2.234360   -1.832325
O     -4.523919   -1.940954   -0.478319
O     -3.039710    3.544000    0.632737
O      3.997343    2.346324   -2.898442
O     -4.034363    1.384940   -1.453581
O      2.830304    0.622286   -2.000668
O      0.851963    0.422843    0.122669
H      6.161724   -2.461767   -0.928209
H      6.958644   -0.922195   -0.567630
H      6.964944   -1.636231   -2.267669
H     -0.625910   -3.435588    1.322368
H     -1.321712   -1.995743    2.260756
H      0.206173   -2.753079    2.705301
H     -3.525914   -1.049645    2.282798
H     -5.024633   -0.150223    2.079817
H     -3.602952    0.802249    2.479832
H      4.010654    0.219092    1.027188
H      2.629048    1.350061    1.558956
H      3.318019    1.436023   -0.033120
H     -6.421837    1.881923   -1.096430
H     -7.089979    1.351960    0.460855
H     -6.091420   -0.262515   -1.653390
H     -6.849820   -0.791903   -0.156272
H     -2.338060   -2.014675   -1.222264
H     -2.242733   -2.504988    0.527745
H      1.948158   -1.824674    3.078677
H      2.819227   -0.422757    2.523425
H     -5.130811    3.043082    0.319527
H     -5.143666    1.833619    1.640373
H     -0.208463   -2.779109   -0.960261
H     -0.325731   -0.965465   -1.213224
H      0.829298    0.840378    2.988829
H     -0.045444   -0.678063    3.138304
H      4.044972   -1.799198   -0.157763
H      3.791657   -2.279738   -1.831458
H     -0.547127    2.234282    0.763625
H     -1.719027    2.233470    2.083678
H      6.627767    1.271098   -3.584985
H      7.399924    0.354757   -2.234682
H     -1.949395    0.188357   -0.894837
H     -1.794934   -0.015954    2.105604
H      2.300962   -2.361855    0.682544
H     -2.095369    2.560399   -0.828143
H      1.891105   -1.149132   -1.782617
H      6.554977    3.001595   -2.402702
H     -3.347820    4.116676   -0.126611
H     -3.818961    0.490417   -1.808189
