75

C      6.258779   -1.939119    0.238124
C     -0.627489    2.886766   -1.210844
C     -4.149874    0.993155    0.184689
C      2.694945    1.277406    1.811637
C     -5.786113   -1.979325    0.345222
C     -5.556061   -1.454727   -1.026098
C     -1.517361    0.403498   -1.708821
C      1.304797    3.176715    0.783006
C     -4.980302   -1.278319    1.424077
C      0.015698    0.591943   -1.583455
C      0.058769    2.590610    1.351460
C      3.976743   -0.728429    0.390288
C     -1.786268    0.109208    2.079411
C      6.066958   -1.852343   -2.612949
C      5.058453   -1.298659   -0.459032
C      4.999069   -1.273421   -1.749100
C     -1.986798   -0.105685   -0.402011
C     -1.503770    0.757346    0.763513
C      1.614804    2.153982   -0.324453
C     -4.215157   -0.889552   -1.283961
C     -2.538982   -1.160292    2.018864
C      3.155491    0.310631   -0.307742
C      3.848408   -0.644786   -2.420421
C      0.216888    1.780085   -0.740579
C     -3.436590   -0.301238   -0.189685
C      2.070348    0.935897    0.449449
C     -3.550595   -1.307211    0.966719
C     -0.141788    1.261838    0.677332
O      7.079747   -2.393514   -1.903685
O     -3.792946   -0.928931   -2.406651
O     -3.184418   -1.340417    3.267953
O      3.839970   -0.648670   -3.674774
O     -3.369733   -2.567644    0.344001
O      2.858359   -0.094715   -1.641800
O      0.899558    0.352029    0.745940
H      6.022753   -1.799539    1.344358
H      7.173038   -1.378657    0.093201
H      6.283667   -3.013356    0.100171
H     -0.695633    2.801519   -2.339593
H     -0.290443    3.909952   -1.047035
H     -1.691993    2.858473   -0.878394
H     -4.087806    1.239723    1.242010
H     -3.789723    1.769101   -0.517449
H     -5.244829    0.889654   -0.060842
H      3.657783    1.768097    1.721794
H      2.911979    0.243917    2.239673
H      1.998509    1.660047    2.545689
H     -5.550930   -3.056591    0.404539
H     -6.870507   -1.881358    0.574733
H     -6.368638   -0.752784   -1.344037
H     -5.690632   -2.335034   -1.724692
H     -1.566307   -0.442816   -2.462454
H     -2.015943    1.275508   -2.113988
H      2.138672    3.329512    1.463477
H      1.161128    4.195807    0.320220
H     -5.393424   -0.285242    1.593890
H     -5.142297   -1.865891    2.353824
H      0.393117    0.644296   -2.600573
H      0.279153   -0.371203   -1.046673
H     -0.122313    2.651206    2.405935
H     -0.777537    3.226211    0.901638
H      4.556571   -0.281094    1.258764
H      3.349220   -1.563651    0.766967
H     -0.790254   -0.067887    2.584162
H     -2.313853    0.804606    2.794811
H      5.587508   -2.673641   -3.221936
H      6.482433   -1.086464   -3.310058
H     -1.488235   -1.105335   -0.248778
H     -2.178053    1.667872    0.718083
H      2.270292    2.509386   -1.084051
H     -1.782056   -2.001078    1.994774
H      3.901477    1.156442   -0.492179
H      7.260198   -3.359591   -2.066117
H     -2.443708   -1.483306    3.916963
H     -3.025924   -3.190924    1.023545
