94

C     -6.875336    3.034716    1.988864
C     -5.597905    4.937356    0.394156
C     -2.825854   -3.621139    0.924720
C      1.354598   -2.872046    0.849061
C     -5.528098   -0.599199   -1.651609
C      0.822115   -1.000581   -2.005092
C     -0.653516   -1.071708   -1.993810
C     -0.992887   -1.672661    1.737813
C     -2.517376   -1.477907    1.805318
C     -5.756074    1.136916    0.653887
C      3.086622   -1.077029   -1.064791
C      3.245210   -0.673124    1.376112
C     -4.606446   -2.942683   -0.858156
C      8.607132    1.911313    1.573666
C     -5.964686    2.559562    0.889851
C     -5.375116    3.467872    0.153666
C      1.600072   -1.167782   -0.936971
C      3.766347   -0.287975   -0.006885
C     -0.425098   -1.211087    0.417353
C     -1.081293   -1.880375   -0.748391
C      7.238520    2.132093    0.963558
C      1.774680   -0.533262    1.329792
C     -3.219162   -3.040760   -1.419552
C     -4.466839    0.739165    0.024389
C      7.331657    2.847270   -0.366254
C      7.570244    1.869643   -1.481948
C      6.544978    0.763605   -1.543084
C     -4.491616    3.013825   -0.905598
C      5.798433    0.748086   -0.231706
C     -3.131874   -2.146279    0.690709
C      1.036772   -1.452247    0.399365
C     -4.418286   -0.605402   -0.578216
C     -4.510943   -1.835523    0.226633
C     -2.538115   -1.861296   -0.700561
O      8.421807    1.352730    2.836479
O      1.252381    0.294905    2.027400
O     -3.136528   -2.731049   -2.776309
O      6.224408    3.636855   -0.549193
O      8.831985    1.285054   -1.356513
O      5.620735    1.157342   -2.534914
O     -3.922920    3.892389   -1.617435
O     -5.512060   -1.978440    1.095561
O      5.164001   -0.502217   -0.034728
O      6.612831    0.917439    0.876558
O     -4.316583    1.670876   -1.083479
O     -3.164468   -0.739746   -1.194446
H     -6.301784    3.509926    2.813983
H     -7.459310    2.170795    2.371705
H     -7.608110    3.770437    1.589677
H     -5.601736    5.139456    1.485769
H     -6.539717    5.283764   -0.048952
H     -4.706921    5.445950   -0.021660
H     -2.714104   -3.850213    2.030870
H     -3.512851   -4.340839    0.559101
H     -1.776640   -3.788759    0.538078
H      1.249703   -2.978413    1.951007
H      2.378558   -3.156791    0.550475
H      0.664351   -3.617074    0.404433
H     -5.917831    0.456347   -1.816129
H     -6.447688   -1.104540   -1.295287
H     -5.165822   -0.877742   -2.639313
H      1.319959   -0.798047   -2.941906
H     -0.973286   -1.683942   -2.857824
H     -1.158431   -0.094352   -1.978906
H     -0.773486   -2.723270    1.957929
H     -0.553014   -1.062087    2.535580
H     -2.781315   -2.073105    2.744991
H     -2.679350   -0.474761    2.104011
H     -5.760230    0.636879    1.674041
H     -6.643213    0.644709    0.165614
H      3.340844   -0.605273   -2.062667
H      3.503768   -2.107398   -1.148348
H      3.708421   -0.046635    2.157895
H      3.585247   -1.704829    1.550374
H     -5.238234   -2.631830   -1.713365
H     -5.077781   -3.849279   -0.502538
H      9.181244    1.147930    0.978013
H      9.162949    2.860460    1.623195
H      3.519251    0.783487   -0.142692
H     -0.609823   -0.121551    0.348039
H     -0.690876   -2.906405   -0.945543
H      6.673221    2.785968    1.653311
H     -2.709332   -3.979009   -1.268626
H     -3.576279    1.023183    0.611076
H      8.217272    3.515844   -0.299726
H      7.591220    2.458152   -2.426610
H      6.981377   -0.227041   -1.788681
H      5.020907    1.548505   -0.299632
H      8.066742    2.008703    3.485215
H     -3.554293   -3.500806   -3.259599
H      6.379725    4.487524   -0.031739
H      9.490129    2.039331   -1.421193
H      5.870031    0.786174   -3.417077
H     -6.249911   -2.587029    0.848364
