62

C      4.638669    1.002257    0.620654
C      4.422842    1.065731   -0.825829
C      3.666501    1.049554    1.490633
C      4.937364   -0.167645   -1.543053
C     -8.084044   -1.088019   -0.556126
C     -8.323458   -0.943444   -1.920820
C      2.245211    1.169273    1.157835
C     -6.919381   -0.614582    0.017355
C     -7.369019   -0.315275   -2.689060
C      6.399518   -0.402785   -1.363811
C      1.823630   -2.509306    1.889354
C      0.301839   -2.446050    1.826812
C     -2.344451    1.788517   -0.510625
C     -3.043214    1.666448   -1.695199
C      1.237819   -1.465328   -0.085553
C     -4.063347    0.693154    0.676287
C      2.178713   -1.260974    1.114348
C     -0.050584   -1.445057    0.758711
C     -2.839511    1.304379    0.700862
C      1.530583   -0.058087    1.758219
C     -5.992163    0.005768   -0.779983
C     -4.762464    0.570527   -0.505530
C     -6.192902    0.167913   -2.135382
C     -4.275189    1.048254   -1.704162
C      7.286752    0.642032   -1.875451
C      0.077984   -0.051262    1.315454
N     -0.860439    0.159987    2.346974
O      8.518789    0.575107   -1.658253
O      6.796322    1.704170   -2.596823
O     -2.834148    1.671874    3.303607
O     -1.137817    2.800152    2.012977
O     -5.153735    0.790512   -2.651777
S     -1.885455    1.507005    2.152453
H      5.697719    0.909489    0.942856
H      5.044141    1.942320   -1.193843
H      3.407199    1.316650   -1.165618
H      3.981058    0.992290    2.551448
H      4.363203   -1.034609   -1.207329
H      4.730807   -0.047825   -2.646121
H     -8.843508   -1.584007    0.035721
H     -9.247609   -1.318544   -2.380336
H      1.782534    2.100736    1.571044
H      1.993470    1.193950    0.085564
H     -6.710188   -0.712143    1.065060
H     -7.518588   -0.181958   -3.764517
H      6.568606   -0.593123   -0.268382
H      6.639294   -1.401305   -1.836398
H      2.152345   -3.376954    1.283998
H      2.222977   -2.547805    2.899860
H     -0.150541   -3.424274    1.646251
H     -0.013164   -2.043701    2.832935
H     -1.388175    2.285958   -0.577093
H     -2.635133    2.054720   -2.636988
H      1.381151   -2.435793   -0.563802
H      1.241510   -0.600892   -0.760691
H     -4.466659    0.311412    1.602155
H      3.210551   -1.150969    0.867246
H     -0.932796   -1.648810    0.187913
H      1.669314   -0.132054    2.832567
H      0.022426    0.682683    0.481652
H     -1.471649   -0.680268    2.443517
H      7.338491    2.510022   -2.863855
