49

C     -3.253369   -2.143666    0.689368
C     -3.907036    1.312772    1.914673
C     -3.752183   -1.085618   -0.277834
C     -2.464737    1.640236    1.756001
C      4.368557   -0.620388   -0.402102
C      4.441905   -0.629418   -1.771172
C      2.588957   -0.116629    3.842228
C     -2.684653   -0.337223   -0.971474
C     -1.836819    1.516406    0.433860
C      3.901227   -0.499757    3.735029
C     -0.140813    0.629044   -2.199510
C      0.732268    0.342786    0.172870
C      1.715345    0.138469   -3.959035
C      1.180005    0.268575   -2.715847
C     -0.361305    0.139217   -0.792559
C      3.176889   -0.303654    0.280805
C      2.053460    0.004765   -0.475289
C      3.315247   -0.318390   -2.532256
C      2.170231   -0.015053   -1.828429
C      3.153534   -0.291156    1.725050
N      2.164681    0.001248    2.555666
N      3.033558   -0.223899   -3.849049
N     -1.699322    0.371136   -0.292092
O      4.184081   -0.588155    2.480136
H     -2.683172   -2.920764    0.157240
H     -4.156679   -2.645037    1.092261
H     -2.731582   -1.700368    1.546044
H     -4.122154    0.278039    2.245596
H     -4.399769    1.945378    2.722588
H     -4.484790    1.617740    0.998742
H     -4.238677   -1.755187   -1.111498
H     -4.637876   -0.549826    0.070460
H     -1.846367    1.137230    2.575700
H     -2.371645    2.731264    2.088556
H      5.230170   -0.857486    0.190696
H      5.372004   -0.876750   -2.299309
H      2.076166    0.036757    4.768758
H     -2.129901   -1.136088   -1.589586
H     -3.167869    0.250580   -1.813551
H     -0.827261    2.040832    0.512932
H     -2.477261    2.255133   -0.226547
H      4.572662   -0.691612    4.557063
H     -0.237842    1.732193   -2.212780
H     -0.890501    0.136457   -2.880532
H      0.899603    1.340627    0.584329
H      0.587699   -0.418785    0.995108
H      1.255820    0.276809   -4.927130
H     -0.373575   -1.021639   -0.945609
H      3.703089   -0.397144   -4.618564
