55

C     -3.942157    0.321576   -1.838320
C     -3.978089   -0.931656    0.238821
C     -1.164285   -0.659730    1.630829
C     -2.297681    2.374033    0.208323
C     -1.447038   -1.273638   -1.373983
C     -3.528426    1.494246    0.239080
C     -1.243386    1.689146    1.021072
C     -0.049826   -1.125324   -1.959360
C      4.751742   -0.767682   -0.297474
C      1.589703    0.608608    0.790104
C      1.403499   -2.016721   -0.226908
C      3.956234    0.239856    0.080122
C      2.618274    0.613115   -0.356243
C     -1.837998    0.019212   -0.698645
C      0.411120    0.328340   -0.076777
C      6.000493   -0.740339    0.414465
C      4.735541    0.979396    1.108849
C     -3.274740    0.179409   -0.457186
C     -0.922153    0.277890    0.499723
C      0.934226   -0.788020   -0.891345
O      0.417824   -2.826670    0.329269
O      6.994063   -1.522184    0.329288
O      4.901452    2.286912    0.598551
O      5.959297    0.335781    1.264329
O      2.104805   -0.153074   -1.381054
H     -4.128488   -0.649536   -2.301685
H     -4.903130    0.861522   -1.677418
H     -3.331418    1.010652   -2.482447
H     -4.019685   -0.775177    1.343778
H     -3.640024   -1.931892   -0.056148
H     -5.064890   -0.887261   -0.073454
H     -1.783668   -0.165586    2.441084
H     -0.211090   -0.910584    2.183323
H     -1.757466   -1.558971    1.377597
H     -1.995562    2.693179   -0.785987
H     -2.572105    3.299505    0.773216
H     -2.130181   -1.403812   -2.239203
H     -1.552241   -2.147173   -0.734360
H     -4.373037    2.061512   -0.194164
H     -3.770637    1.319349    1.308694
H     -1.601798    1.668352    2.072073
H     -0.348156    2.338506    1.021263
H     -0.099471   -0.355403   -2.758704
H      0.208071   -2.114407   -2.428792
H      4.492581   -1.509492   -1.042143
H      1.817751   -0.158700    1.536760
H      1.605977    1.581280    1.280077
H      1.864414   -2.662356   -1.030768
H      2.206371   -1.882871    0.518950
H      2.594309    1.677587   -0.732001
H     -1.537262    0.821247   -1.442225
H      0.390332    1.217022   -0.797447
H      4.176522    1.025076    2.062500
H      0.766958   -3.728673    0.458372
H      5.604527    2.324625   -0.074407
