57

C     -2.979040    0.715244    1.672211
C     -3.488315   -0.758586   -2.136264
C      4.573754   -2.871509    1.543228
C     -1.665375    4.350916   -1.840310
C      3.547644   -3.622467    2.063602
C     -2.792565    3.717191   -1.362434
C      4.361252   -1.645319    0.906371
C     -0.417974    3.793205   -1.630706
C      2.258132   -3.153317    1.956130
C     -2.701469    2.506186   -0.660256
C     -1.025430   -2.690985    0.397720
C      2.825432    3.021730   -1.519353
C      3.069359   -1.198274    0.811052
C     -0.374829    2.610005   -0.940101
C      2.082451    1.957521   -0.833852
C      2.026293   -1.945809    1.331497
C     -1.470120    1.937331   -0.440734
C     -2.545504   -2.486312    0.434375
C     -0.470012   -1.828269    1.513442
C      0.713305    1.845837   -0.618223
C      2.487234   -0.069172    0.267804
C      2.993490    1.022845   -0.405478
C      1.128859   -0.197461    0.491811
C      0.266472    0.759539    0.050171
C     -2.754076   -1.034440   -0.021624
C      4.310155    1.453873   -0.793946
C     -1.970999   -0.139866    0.877753
N      4.187346    2.589010   -1.423170
N      0.866231   -1.341121    1.136066
N     -1.099043    0.789511    0.182296
O     -3.119779   -3.355500   -0.478385
O      5.556124    0.834470   -0.579755
O     -2.369595   -0.986662   -1.339414
O     -1.288447   -0.821384    1.889256
H     -3.000252    0.371073    2.765866
H     -2.672350    1.763083    1.755558
H     -4.020631    0.532559    1.356643
H     -3.993642    0.205831   -1.882951
H     -3.213080   -0.735071   -3.205279
H     -4.271906   -1.550061   -1.971967
H      5.607826   -3.222297    1.615691
H     -1.747290    5.284763   -2.380309
H      3.726593   -4.579694    2.559271
H     -3.792826    4.106255   -1.496755
H      5.214371   -1.128936    0.532245
H      0.492670    4.251485   -1.985085
H      1.408440   -3.722479    2.358644
H     -3.606024    2.017786   -0.317593
H     -0.689293   -2.278330   -0.563083
H     -0.758479   -3.747228    0.498575
H      2.518129    3.134378   -2.591335
H      2.654652    3.995146   -0.975524
H     -2.939088   -2.623998    1.463990
H     -0.310798   -2.496847    2.381738
H     -3.855947   -0.878214    0.056915
H     -3.826970   -3.899063   -0.048842
H      6.354928    1.441899   -0.427190
