55

C      1.277428   -4.845755   -1.701012
C      5.782477    2.023600    2.385181
C     -3.860180    3.017310   -1.531668
C      2.566434    1.004044   -1.817512
C     -4.041440   -0.726164    1.804144
C      3.521441    1.990506   -1.918192
C     -5.336675   -0.368849    1.520024
C      1.365436   -0.806777   -0.567830
C      3.235133    0.538572    0.393067
C     -3.332280    0.975425    0.271475
C      0.376128    0.424133    1.315204
C     -0.602920   -2.505392    0.590168
C      0.577502   -4.355915   -0.501579
C      2.411824    0.265656   -0.659376
C     -3.039945   -0.029733    1.158240
C      0.122839   -0.189329   -0.069005
C     -0.999284   -1.106700    0.251003
C      4.322047    2.234183   -0.851774
C     -5.643133    0.624120    0.644405
C      4.237132    1.533007    0.367425
C     -4.627191    1.317380    0.001029
C     -1.631853   -0.408745    1.457294
O      0.430974   -5.086874    0.507301
O      5.302350    3.224183   -0.910453
O     -6.952464    0.982817    0.359334
O      5.018828    1.781199    1.388024
O     -4.916443    2.336271   -0.898048
O      0.077836   -3.069512   -0.496904
O     -0.929331    0.778463    1.650180
H      2.097239   -5.543706   -1.428059
H      0.535347   -5.337597   -2.364237
H      1.725679   -4.005742   -2.259724
H      6.892166    1.883290    2.132691
H      5.724892    3.083340    2.801172
H      5.577671    1.319730    3.267314
H     -3.285757    3.558348   -0.759262
H     -4.239937    3.733033   -2.270702
H     -3.197993    2.261865   -2.032100
H      1.909616    0.767935   -2.620911
H     -3.792363   -1.515735    2.500290
H      3.598688    2.539702   -2.852459
H     -6.127671   -0.904280    2.017298
H      1.743274   -1.521248    0.194269
H      1.267527   -1.337903   -1.514534
H      3.149601   -0.013227    1.316436
H     -2.532900    1.511151   -0.226244
H      1.050166    1.289100    1.249565
H      0.711922   -0.365898    1.985692
H     -1.553437   -3.089180    0.724864
H     -0.063498   -2.603566    1.549981
H     -0.270908    0.604696   -0.754790
H     -1.771261   -1.150836   -0.543848
H     -1.546138   -1.001302    2.372436
H      5.419387    3.767754   -1.756478
H     -7.733983    0.519151    0.792104
