55

C     -2.621523    4.964311    0.037758
C      5.817520   -1.260044    1.673039
C     -4.416110   -2.851829    2.762382
C      3.073970   -1.053132   -2.544462
C     -3.233456    0.543879   -0.662603
C      4.030845   -2.046767   -2.732368
C     -4.552775    0.184798   -0.971428
C      1.973044    0.724903   -1.184644
C      3.923179   -0.649203   -0.396310
C     -3.170201   -0.941181    1.161206
C      0.925491   -0.512081    0.735416
C      0.153615    2.361174    0.356406
C     -1.588988    3.943559   -0.268213
C      3.019714   -0.345955   -1.362020
C     -2.531507    0.009905    0.374531
C      0.748720    0.128252   -0.601387
C     -0.372166    1.113320   -0.309088
C      4.941011   -2.341548   -1.740192
C     -5.141075   -0.758593   -0.165873
C      4.873181   -1.626855   -0.566932
C     -4.465913   -1.335150    0.907806
C     -1.157714    0.352832    0.722790
O     -1.427061    3.638188   -1.465477
O      5.878770   -3.338662   -1.966341
O     -6.430156   -1.158624   -0.408378
O      5.777269   -1.917929    0.421771
O     -5.127067   -2.282707    1.677605
O     -0.807114    3.317125    0.658992
O     -0.400257   -0.771522    1.067995
H     -2.828317    5.629208   -0.800482
H     -2.405192    5.532791    0.962781
H     -3.575632    4.408500    0.249110
H      5.729242   -0.164980    1.443411
H      6.794491   -1.380746    2.167196
H      4.974555   -1.546277    2.334749
H     -4.265829   -2.131354    3.597289
H     -3.436440   -3.262898    2.396264
H     -5.019649   -3.706046    3.169480
H      2.393876   -0.878024   -3.367122
H     -2.803322    1.288979   -1.311137
H      4.090250   -2.612450   -3.651445
H     -5.051522    0.648648   -1.810255
H      1.738476    1.082254   -2.208157
H      2.380076    1.580226   -0.629041
H      3.903220   -0.112608    0.536482
H     -2.662209   -1.405759    2.006124
H      1.452445   -1.488053    0.689072
H      1.420332    0.182592    1.448481
H      0.831823    2.849813   -0.407192
H      0.825075    2.117643    1.202133
H      0.299699   -0.642130   -1.274905
H     -0.855374    1.289401   -1.259663
H     -1.218959    0.932540    1.697931
H      6.545142   -3.540389   -1.214510
H     -6.949502   -0.761345   -1.178575
