54

C      7.543726    1.887100   -1.094403
C      6.443640    2.697867   -1.371031
C      7.339442    0.719680   -0.412857
C      0.588786   -2.565842    2.174185
C      5.178634    2.326506   -0.964175
C      6.094925    0.342161   -0.005811
C      1.569159   -2.549437    1.009726
C     -0.458444   -1.564589    1.805576
C     -4.165542    1.512598   -0.951420
C     -3.592355   -0.740121   -0.490566
C     -5.466142    1.237957   -0.619531
C     -4.921248   -1.021814   -0.151163
C      3.657458    0.715141    0.172901
C     -1.810929    0.788060   -1.240496
C      5.023583    1.145117   -0.282651
C     -3.227744    0.519025   -0.885947
C     -5.865835   -0.027939   -0.215329
C      1.474695   -1.121957    0.554885
C     -0.022604   -0.894718    0.520193
C     -7.251192   -0.283606    0.128842
C      2.106566   -0.888093   -0.755291
C     -0.278146    0.551812    0.616854
N     -8.176130    0.791161    0.040380
N     -7.661340   -1.434307    0.505479
N      3.068581   -0.066934   -0.877375
N     -1.038501    1.244499   -0.138379
O      1.656860   -1.562159   -1.866561
O      0.368645    1.279246    1.639678
H      8.544685    2.184247   -1.418208
H      6.633583    3.621195   -1.914585
H      8.217446    0.099678   -0.207112
H      0.184053   -3.571512    2.372035
H      1.159838   -2.172483    3.056780
H      4.325481    2.956732   -1.179517
H      5.967282   -0.589259    0.532342
H      2.591855   -2.739466    1.361208
H      1.241136   -3.266610    0.225034
H     -1.434804   -2.064598    1.605174
H     -0.639800   -0.812361    2.578004
H     -3.904907    2.531888   -1.264625
H     -2.876447   -1.547548   -0.428423
H     -6.229775    2.023415   -0.666784
H     -5.142187   -2.048423    0.155892
H      3.810793    0.157453    1.115303
H      3.039896    1.631205    0.347129
H     -1.344163   -0.087006   -1.704690
H     -1.795432    1.604463   -2.015265
H      1.886087   -0.477418    1.349694
H     -0.495489   -1.327542   -0.366736
H     -8.699061    0.946491   -0.835573
H     -8.320431    1.408399    0.847538
H     -7.072464   -2.264984    0.599260
H      2.142621   -1.424445   -2.756790
H      0.031658    2.192074    1.919111
