38

C     -0.317517   -1.846522    1.157357
C      4.145620   -0.104307   -0.140284
C     -1.760442    1.566248   -1.340147
C      0.404899    2.195893   -0.412118
C      1.976657   -1.445857   -0.530573
C      1.299816   -0.314518   -0.560826
C     -2.358238   -0.920008    0.212516
C     -1.228504    1.136919    1.044749
C     -0.930369   -1.316388   -0.091768
C      3.416243   -1.378773   -0.319810
C     -2.436106    0.263596    1.139066
C     -0.659327    1.128358   -0.367362
C     -0.145527   -0.234208   -0.763730
O      4.071239   -2.449880   -0.288515
O     -2.619831   -0.141712    2.481892
O     -0.367349   -0.338343   -2.157849
H     -1.028003   -1.793417    2.035357
H      0.584757   -1.296135    1.497336
H     -0.077577   -2.948603    1.087563
H      3.894642    0.394395    0.837503
H      3.819464    0.579168   -0.955135
H      5.232769   -0.303634   -0.177362
H     -1.487645    2.478800   -1.890068
H     -1.932700    0.780412   -2.122130
H     -2.705062    1.798482   -0.798148
H      1.036902    2.222080    0.497242
H     -0.150631    3.179546   -0.401300
H      0.986809    2.193859   -1.355130
H      1.472475   -2.397969   -0.659432
H      1.853271    0.598880   -0.427219
H     -2.986545   -0.826369   -0.685377
H     -2.792643   -1.790488    0.787590
H     -0.422724    0.867454    1.745222
H     -1.467213    2.218753    1.253462
H     -1.004786   -2.177041   -0.816388
H     -3.339125    0.891683    0.914987
H     -2.222150    0.585062    3.029948
H      0.244449   -1.055418   -2.461118
