32

C     -2.837010   -1.439147    0.001934
C     -3.103966    0.470647    2.074619
C      2.512740    1.334046   -0.481673
C      3.862100    1.000778   -0.329437
C      1.912520   -0.936285   -0.353286
C     -1.827629   -0.360022    0.076358
C      1.534496    0.362060   -0.493979
C      4.242321   -0.317066   -0.187643
C      3.260547   -1.290001   -0.199851
C     -0.834845   -0.244902   -0.777603
C      0.126850    0.845484   -0.639947
C     -0.740057   -1.206959   -1.864462
C     -1.088180    1.664392    1.246742
F      5.555780   -0.661823   -0.038161
F      3.634445   -2.568702   -0.061806
N     -0.136088    1.746450    0.422301
N     -2.004640    0.596182    1.134992
O     -1.559198   -2.119442   -1.991410
O      0.291358   -1.091049   -2.775484
O     -1.247908    2.616924    2.269409
H     -3.554563   -1.370232    0.853597
H     -2.339395   -2.416416    0.132038
H     -3.446638   -1.450723   -0.899746
H     -3.088941   -0.463367    2.643729
H     -3.128127    1.362885    2.719686
H     -4.046314    0.514479    1.457546
H      2.255417    2.382677   -0.590292
H      4.643593    1.747605   -0.317216
H      1.186650   -1.707669   -0.343292
H      0.134188    1.416227   -1.617293
H      0.271173   -1.504444   -3.711424
H     -0.440680    3.087416    2.641055
