16

C      1.798032   -0.437085    0.145366
C     -0.573242    1.681712   -0.277678
C      0.363711   -0.563189   -0.297512
C     -0.488342    0.389937    0.508648
C     -1.569440   -1.604247    0.108038
O     -2.511606   -2.424082   -0.145394
O     -0.199607   -1.809963    0.026121
O     -1.733940   -0.292031    0.532759
H      2.450602   -1.125167   -0.427649
H      1.920897   -0.504768    1.232209
H      2.126405    0.594899   -0.143647
H     -1.392524    1.610552   -1.018269
H      0.385265    1.826616   -0.825936
H     -0.787673    2.484333    0.438602
H      0.282063   -0.362770   -1.362332
H     -0.070601    0.535255    1.506676
