75

C      6.109821   -1.460606   -3.055914
C      8.754327    0.754862   -0.170748
C     -0.154711   -2.448467    3.568130
C     -2.008251   -0.894942    3.739265
C      4.733853   -0.929482   -2.665968
C      7.673194    1.546801    0.530565
C     -4.442479    2.303143   -2.741800
C     -5.372557   -1.974409    2.571385
C     -6.225965   -1.045395    2.039778
C     -3.616566    1.045174   -2.896975
C     -4.756515    2.668518   -1.330591
C     -4.093764   -2.083454    2.076827
C     -5.794541   -0.241681    1.025400
C      1.535683    1.884749    0.002602
C      2.810733    2.142371    0.483304
C     -4.055572   -0.023115   -1.909157
C     -3.859890    1.910886   -0.377649
C     -1.409599   -2.114434    1.537715
C      2.438802    0.364762   -1.566173
C     -0.028893    0.754389   -1.513235
C     -1.057788   -1.457894    2.787123
C      1.342645    0.989453   -1.031328
C     -3.654080   -1.252232    1.034381
C      3.914064    1.514356   -0.054973
C     -2.286974   -1.470537    0.542653
C     -4.504137   -0.321517    0.495055
C      3.727531    0.610086   -1.096346
C     -0.687356   -0.426020   -0.862767
C      5.237784    1.812277    0.469340
N     -1.678064   -0.304577   -0.067684
N     -4.141118    0.502652   -0.572684
O     -0.187772   -1.683940   -1.148520
O      5.345264    2.650026    1.410946
O      4.860969    0.007925   -1.599134
O      6.404941    1.248450    0.018094
H      6.235903   -2.527014   -2.782021
H      6.229226   -1.352546   -4.145746
H      6.893337   -0.893550   -2.487880
H      9.326649    1.404265   -0.890957
H      8.322738   -0.083962   -0.722538
H      9.478575    0.319808    0.556134
H     -0.083858   -2.132013    4.625291
H      0.795302   -2.582121    3.058429
H     -0.697232   -3.418872    3.561363
H     -2.654610   -0.063779    3.406663
H     -2.546929   -1.654469    4.375175
H     -1.365222   -0.372548    4.544379
H      4.222271   -0.440663   -3.538336
H      4.129828   -1.810118   -2.369855
H      7.936351    2.626665    0.417452
H      7.686734    1.289326    1.608192
H     -3.910448    3.150007   -3.222952
H     -5.412433    2.206970   -3.307819
H     -5.680066   -2.644975    3.389284
H     -7.229479   -0.989614    2.460497
H     -3.824538    0.637530   -3.904007
H     -2.542562    1.231132   -2.827966
H     -5.832591    2.518199   -1.068162
H     -4.587197    3.772086   -1.163134
H     -3.492156   -2.854141    2.525817
H     -6.470918    0.496105    0.602005
H      0.717986    2.415532    0.474755
H      2.958655    2.858664    1.305829
H     -3.401147   -0.890184   -2.039498
H     -5.109502   -0.328137   -2.218626
H     -4.089664    2.225254    0.672650
H     -2.826466    2.196327   -0.636828
H     -1.780164   -3.163744    1.740019
H     -0.414529   -2.341063    0.999202
H      2.358025   -0.349440   -2.379246
H     -0.056446    0.636499   -2.637986
H     -0.665593    1.650890   -1.337168
H     -0.317424   -0.616240    2.523744
H     -2.410831   -2.219715   -0.300252
H     -0.762593   -2.484529   -1.345834
