38

C      0.376592   -2.285787    0.229531
C      3.946929   -0.121826   -0.921904
C     -1.368782    2.292142    0.770475
C     -0.478761    1.392879   -1.339336
C      2.018992    1.264638    0.027839
C      1.326592    0.150499    0.204720
C     -1.851930   -1.640983    0.867727
C     -2.383894    0.392233   -0.220444
C     -0.414685   -1.262413    1.044783
C      3.364919    1.187973   -0.544581
C     -2.400165   -1.085874   -0.422836
C     -1.024041    0.982940    0.037923
C     -0.057265    0.138877    0.783950
O      4.062980    2.215337   -0.732981
O     -1.663846   -1.393364   -1.539321
O      0.126095    0.785436    2.039766
H      0.452812   -2.033445   -0.830366
H     -0.177920   -3.275475    0.238768
H      1.342449   -2.547959    0.725949
H      3.389690   -0.605083   -1.767735
H      3.860076   -0.794614   -0.024392
H      5.013358   -0.027074   -1.124357
H     -0.522275    2.795645    1.209127
H     -2.188662    2.070573    1.483238
H     -1.799540    2.953994   -0.010075
H     -1.258256    1.342236   -2.127561
H      0.322861    0.695770   -1.665303
H     -0.143259    2.457886   -1.329928
H      1.593866    2.221072    0.304326
H      1.823238   -0.762023   -0.094690
H     -2.445208   -1.211066    1.692042
H     -1.944889   -2.730563    0.859377
H     -2.838719    0.942497   -1.070979
H     -3.058925    0.585797    0.665060
H     -0.164941   -1.544287    2.114604
H     -3.475032   -1.377371   -0.515676
H     -1.857428   -2.298659   -1.908790
H      0.496975    0.129443    2.686223
