32

C      3.985399    1.618335    0.072149
C     -0.751554   -3.192215   -0.438541
C     -3.482917    1.949824    1.502333
C      2.550426    1.602376   -0.370832
C      0.174302   -2.054391   -0.821433
C      1.842868    0.307652    0.007392
C      0.428869    0.418214   -0.487705
C     -1.767557   -0.596272   -0.799132
C     -2.765873    0.715341    1.013958
C     -0.402390   -0.799887   -0.183790
O     -2.459789   -0.179082    1.834117
O     -2.437879    0.542088   -0.305142
H      4.663689    1.172734   -0.678282
H      4.335553    2.658538    0.238303
H      4.087126    1.042396    1.001360
H     -1.363949   -2.927178    0.453097
H     -0.173203   -4.108572   -0.209430
H     -1.449638   -3.405415   -1.270690
H     -3.099482    2.829786    0.982918
H     -3.364264    2.029585    2.595041
H     -4.546780    1.788775    1.260131
H      2.013667    2.421227    0.185753
H      2.458388    1.825187   -1.446449
H      1.171939   -2.306904   -0.431238
H      0.144071   -1.940238   -1.925204
H      2.358553   -0.545540   -0.502877
H      1.928531    0.171074    1.090267
H     -0.067375    1.280591   -0.012418
H      0.458986    0.591319   -1.578615
H     -1.612299   -0.403442   -1.901102
H     -2.359868   -1.524716   -0.668680
H     -0.497549   -0.981189    0.884804
