21

C     -3.626840    0.365076   -0.256101
C      3.358769    0.157320    0.512484
C     -2.413310   -0.545547   -0.288881
C     -1.199196    0.335779   -0.409450
C      2.512973   -0.354723   -0.612081
C      1.182746    0.323225   -0.560618
O      2.372103   -1.729948   -0.535217
O      1.180426    1.577726   -0.622139
O      0.003142   -0.409719   -0.449417
H     -3.682336    0.811741    0.764603
H     -4.564941   -0.166609   -0.452465
H     -3.448858    1.177311   -0.976486
H      4.088064   -0.615989    0.874251
H      2.717648    0.538284    1.317305
H      3.981020    0.991403    0.130046
H     -2.527883   -1.161681   -1.223167
H     -2.377018   -1.196964    0.606296
H     -1.197711    1.005159    0.498170
H     -1.303527    0.985880   -1.280301
H      2.996433   -0.134784   -1.607549
H      1.948298   -1.952940    0.335576
