50

C      4.676188    1.475788   -1.172962
C      2.204410   -1.239482    2.565056
C      0.277245   -1.852475   -2.347702
C      3.813105    1.405470   -0.168191
C     -0.741596    2.408509    2.259380
C     -4.298532   -0.947987   -2.312839
C     -0.738144    1.101840    1.832161
C     -1.571156    3.326059    1.660842
C     -3.056569   -0.742323   -1.897704
C      3.512698    0.082792    0.413425
C     -5.292970   -1.268895   -1.443795
C     -2.382682    1.604121    0.212051
C      1.767723   -0.476854   -1.062279
C      0.393500   -1.822912    0.967141
C      1.801886   -1.409928    1.141050
C      0.299734   -0.859225   -1.235055
C     -1.548183    0.689561    0.816270
C     -2.395959    2.931800    0.635759
C     -2.754836   -0.855257   -0.541540
C     -1.601054   -0.714638    0.277950
N      2.111172   -0.264675    0.312454
N     -0.366914   -1.215834   -0.054743
O     -3.244234    3.844813    0.018150
S     -4.440927   -1.295244    0.130279
H      5.180333    0.617371   -1.599278
H      4.936954    2.434550   -1.650516
H      3.217063   -1.686174    2.754412
H      1.499178   -1.805419    3.205234
H      2.168244   -0.181719    2.906475
H     -0.721463   -2.347846   -2.484034
H      0.462312   -1.352467   -3.329758
H      1.088533   -2.616703   -2.266057
H      3.374799    2.335281    0.171638
H     -0.089926    2.752306    3.078842
H     -4.603221   -0.872456   -3.412229
H     -0.082176    0.405128    2.334488
H     -1.560991    4.366257    2.012546
H     -2.226455   -0.475505   -2.587516
H      4.099313   -0.685582   -0.084383
H      3.848331    0.119661    1.479353
H     -6.325204   -1.463631   -1.585720
H     -3.055611    1.320333   -0.606620
H      2.051452    0.417043   -1.648211
H      2.442035   -1.302700   -1.437668
H     -0.095425   -1.878128    1.960715
H      0.409964   -2.937890    0.667729
H      2.476431   -2.227157    0.730680
H     -0.171897    0.087876   -1.622498
H     -1.857762   -1.282041    1.270611
H     -2.888717    4.354590   -0.790112
