49

C     -7.078148    0.559978    1.247218
C      7.088252   -1.576499   -0.061597
C     -7.016189    1.047258   -0.042053
C      7.003866   -0.491116   -0.917623
C      0.023485    2.074452   -2.875404
C     -6.267400   -0.485533    1.630800
C      6.259788   -1.577454    1.040981
C     -6.135978    0.471885   -0.926771
C      6.126775    0.546265   -0.676719
C     -1.068008    1.286002   -2.574998
C      1.100280    1.994909   -2.016615
C     -4.396374   -2.200211    0.889762
C      4.385052   -0.287376    2.384590
C     -5.369794   -1.074136    0.732854
C      5.367464   -0.556236    1.316620
C     -5.336402   -0.562187   -0.541517
C      5.312711    0.505771    0.441913
C     -1.093029    0.455667   -1.473749
C      1.096186    1.172765   -0.911788
C     -3.522705   -2.093890   -0.318484
C      3.479768    0.800120    1.920001
C     -4.320619   -1.326652   -1.325460
C      4.309480    1.509681    0.876949
C     -2.270184   -0.372505   -1.179702
C      2.259910    1.101161   -0.003053
N     -0.004022    0.434972   -0.685716
N     -3.329756   -0.406281   -1.873864
N      3.326537    1.767692   -0.156602
O     -2.401587   -1.232662   -0.112646
O      2.389528    0.330823    1.125451
H     -7.778267    1.015297    1.956383
H      7.761664   -2.404743   -0.218266
H     -7.652745    1.869549   -0.346542
H      7.663685   -0.508954   -1.779110
H      0.064239    2.729288   -3.729225
H     -6.293196   -0.886752    2.628694
H      6.311627   -2.430196    1.732756
H     -6.109928    0.883575   -1.949641
H      6.076732    1.395659   -1.367884
H     -1.935193    1.324464   -3.232130
H      2.003145    2.580549   -2.175444
H     -3.811222   -2.033188    1.830418
H     -4.944136   -3.162831    0.923423
H      4.947584    0.090643    3.271834
H      3.846253   -1.201381    2.709329
H     -3.190541   -3.090831   -0.701507
H      3.167224    1.510902    2.685321
H     -4.781758   -1.953550   -2.111129
H      4.735945    2.455836    1.207364
