49

C     -7.713334   -0.164552   -1.197607
C      7.781755   -0.004681    0.995328
C     -7.576296    1.134500   -0.772653
C      7.802737    0.152317   -0.374068
C      0.268379    2.770619   -1.285882
C     -6.770668   -1.094371   -0.774843
C      6.663655   -0.545597    1.591589
C     -6.543807    1.523788    0.047171
C      6.688990   -0.244586   -1.092849
C     -0.897677    2.364762   -0.675735
C      1.316783    1.850253   -1.292488
C     -4.629570   -1.535197    0.609073
C      4.251466   -1.534171    1.232392
C     -5.732105   -0.715410    0.046608
C      5.556713   -0.939059    0.868023
C     -5.615413    0.591247    0.459277
C      5.585780   -0.779580   -0.492859
C     -1.060210    1.126999   -0.092601
C      1.168828    0.618188   -0.717244
C     -3.890390   -0.619480    1.562387
C      3.635177   -2.058952   -0.021198
C     -4.430067    0.761281    1.330283
C      4.312820   -1.256433   -1.110430
C     -2.308992    0.724249    0.547373
C      2.301696   -0.345373   -0.737441
N      0.009921    0.298859   -0.146277
N     -3.368693    1.433034    0.647431
N      3.435038   -0.132347   -1.253956
O     -2.561680   -0.489217    1.154228
O      2.285573   -1.614344   -0.196278
H     -8.534045   -0.477059   -1.850055
H      8.653266    0.306239    1.554447
H     -8.302849    1.857005   -1.097022
H      8.665951    0.574300   -0.874755
H      0.391263    3.745524   -1.743251
H     -6.901975   -2.114756   -1.125176
H      6.688807   -0.651965    2.674574
H     -6.473025    2.576088    0.363310
H      6.712989   -0.118138   -2.167792
H     -1.753928    3.049464   -0.642108
H      2.265257    2.097772   -1.753951
H     -3.951242   -1.910078   -0.207388
H     -4.984730   -2.430246    1.146787
H      4.457151   -2.361071    1.949345
H      3.645139   -0.751173    1.721964
H     -4.009335   -0.967100    2.611431
H      3.709331   -3.140367   -0.160653
H     -4.713316    1.271331    2.282103
H      4.468882   -1.832516   -2.026563
