65

C     -4.325686   -3.597964    2.139192
C     -1.657972    3.979435   -2.103801
C     -4.100318   -2.305853   -0.349802
C      2.198825    2.372095   -1.087802
C     -3.933265   -2.136040    2.070178
C      1.998221    0.263963   -2.194579
C      0.978754    0.492625   -2.992724
C      1.100764   -0.259693    2.060498
C      0.533388    0.711788    1.151624
C     -0.965783    1.913064   -3.353487
C     -2.775296    1.809331   -1.828254
C      2.958327   -1.733306    1.089307
C      5.247746   -1.225387    1.962972
C     -2.078092    2.735092   -2.790364
C     -3.170279   -1.922299    0.808586
C      1.955980    0.866113   -0.843512
C     -0.138623    1.320156   -2.517440
C      4.398241   -1.590720    0.737634
C      2.428468   -0.840629    2.144346
C      0.570963    0.648263   -0.294531
C     -1.819090    1.336472   -0.771872
C      4.693270    0.053894    2.453581
C     -0.389907    1.545426   -1.044336
C     -2.816717   -0.493684    0.585422
O      4.901000   -2.842180    0.326643
O      5.455670    0.941913    2.876551
O     -3.129683    0.322224    1.485166
O      3.345589    0.236609    2.432541
O     -2.176217   -0.023151   -0.533537
H     -5.270826   -3.750361    2.703025
H     -3.544219   -4.156757    2.696946
H     -4.459833   -4.058413    1.155393
H     -2.304848    4.813417   -2.530736
H     -1.915014    4.011364   -1.018099
H     -0.624501    4.324645   -2.311149
H     -3.899875   -3.340727   -0.687249
H     -3.982374   -1.643549   -1.211631
H     -5.160699   -2.277814   -0.036992
H      1.824810    3.004313   -0.297511
H      1.787917    2.648255   -2.062347
H      3.298623    2.524129   -1.157455
H     -3.360724   -1.807049    2.937626
H     -4.905673   -1.571523    1.965324
H      2.814546   -0.335972   -2.528946
H      0.957085    0.072023   -4.011138
H      0.911267    0.168258    3.153089
H      0.385937   -1.209180    2.086974
H     -0.523308    0.971915    1.541432
H      1.034042    1.738157    1.492080
H     -0.832458    1.799267   -4.403422
H     -3.639316    2.313197   -1.325367
H     -3.222058    0.932415   -2.375905
H      2.343290   -1.699244    0.178109
H      2.844429   -2.838080    1.413668
H      6.281292   -1.168729    1.623925
H      5.097906   -2.010613    2.732915
H     -2.837329    2.929252   -3.604589
H     -2.309117   -2.592459    0.775016
H      2.780489    0.548143   -0.229153
H      4.621384   -0.892906   -0.069819
H      2.508524   -1.459036    3.115488
H      0.341672   -0.440248   -0.609772
H     -2.092264    1.946766    0.150752
H     -0.053394    2.575793   -0.836686
H      5.816338   -2.646209   -0.031992
