31

C     -0.873867    1.358175    1.166478
C     -2.368481    1.260446    0.943805
C     -1.167293   -0.219466   -0.542903
C     -3.469069   -0.817842    0.247682
C      2.295818   -2.621592    0.104583
C      1.986270    1.750678   -0.366508
C     -0.339428    0.999761   -0.204216
C      3.125158   -0.091136   -0.202596
C      1.776435   -0.378749   -0.124712
C      4.077860   -1.111788   -0.122786
C     -2.570725    0.306307   -0.213894
F     -3.100476    0.909719   -1.314337
N      1.358691   -1.657730    0.030496
N      3.617737   -2.361979    0.030704
N      3.220036    1.222394   -0.350567
N      1.064691    0.753089   -0.225037
O     -3.707186   -1.741943   -0.756824
S      5.791495   -0.682166   -0.228865
H     -0.551001    2.364452    1.486717
H     -0.508773    0.567252    1.866726
H     -2.696816    2.297032    0.648099
H     -2.912368    0.930467    1.848357
H     -0.932840   -1.034070    0.177150
H     -1.076570   -0.531259   -1.586166
H     -3.089715   -1.287320    1.163476
H     -4.444621   -0.355722    0.502443
H      2.015701   -3.670713    0.229775
H      1.766510    2.807744   -0.475420
H     -0.615739    1.836751   -0.880345
H     -3.694612   -1.362865   -1.653479
H      6.023177    0.562072    0.398984
