43

C     -4.371380   -1.112478   -0.083723
C     -2.403129   -2.555343   -0.042777
C     -2.692658    1.122704    0.729488
C      1.022005    3.306515   -1.637771
C     -0.153851    2.871089   -2.229666
C      1.548596    2.624121   -0.559506
C     -0.827320    1.759468   -1.769631
C      3.642459    0.352588    1.301489
C      4.825054   -0.344443    1.159037
C      2.477838   -1.408943    0.267123
C     -0.044070   -0.133101    1.273067
C     -2.954297   -1.253814    0.443649
C      2.424750   -0.171035    0.852571
C      0.867209    1.507714   -0.101227
C     -0.297337    1.084360   -0.695007
C      1.215200    0.614218    1.038302
C      4.833097   -1.601432    0.556741
C      3.646175   -2.122855    0.113935
C     -0.816848   -0.153781    0.009977
Cl     6.276623   -2.543595    0.341018
Cl     3.554197   -3.701089   -0.657594
N     -2.231423   -0.089807    0.145822
H     -4.391823   -0.626095   -1.082076
H     -4.759444   -2.140225   -0.235356
H     -5.045604   -0.623718    0.647821
H     -3.229289   -3.299361   -0.263891
H     -1.829290   -2.510664   -0.968632
H     -1.854453   -3.060691    0.809769
H     -3.319353    0.995426    1.605942
H     -3.309944    1.652720   -0.043296
H     -1.802322    1.729229    1.017966
H      1.556764    4.177283   -1.990052
H     -0.546713    3.438892   -3.084053
H      2.459463    2.921042   -0.062966
H     -1.758652    1.436702   -2.260486
H      3.660572    1.330705    1.771494
H      5.776362    0.035945    1.496122
H      1.571232   -1.830672   -0.081283
H     -0.647192    0.397581    2.048817
H      0.214182   -1.134481    1.670074
H     -3.083918   -1.287618    1.567372
H      1.377765    1.321735    1.905528
H     -0.579231   -0.974795   -0.692598
