57

C     -4.221295    0.311596   -1.992282
C     -4.902548   -0.745523   -1.210705
C      6.125979   -0.486135   -1.621839
C      6.449644   -0.121754    0.695717
C      7.403411   -0.994330   -1.672143
C      7.715645   -0.633500    0.607593
C      1.398532    1.075048    0.164715
C      0.928567   -1.290023    0.587941
C     -0.040784    0.981838   -0.230499
C     -0.095588   -0.580016    1.495282
C      4.278126    0.522773   -0.255130
C     -5.033838   -2.226394    0.560814
C     -4.496736    2.603963   -1.264030
C     -3.255907    3.563075    0.579382
C     -3.473070   -2.555205    2.344726
C      5.652963   -0.045828   -0.411789
C     -3.832528    1.416441   -1.086364
C     -4.231519   -1.245348    0.007033
C     -4.661534   -2.874703    1.715164
C     -4.195962    3.671198   -0.420731
C     -2.595696    2.372452    0.751588
C      3.296653   -0.527436    0.066961
C     -2.880298    1.325133   -0.067446
C     -3.040339   -0.948924    0.668284
C     -2.096249    0.062278    0.213060
Br    -5.828190   -4.218604    2.414833
Cl    -5.021221    5.202652   -0.616454
Cl    -1.451704    2.206296    2.042854
N     -2.739242   -1.601014    1.765353
N      1.927836   -0.294671    0.270821
N     -0.881902    0.334187    0.789599
N      8.175429   -1.063012   -0.575777
O      3.709468   -1.714954    0.166958
O      9.452064   -1.580690   -0.672346
H     -3.271314   -0.086844   -2.417584
H     -4.913957    0.659986   -2.784403
H     -5.023837   -1.641531   -1.887864
H     -5.933926   -0.395074   -0.968410
H      5.481622   -0.419869   -2.494621
H      6.107885    0.216018    1.662818
H      7.794367   -1.348651   -2.626821
H      8.363314   -0.696284    1.503045
H      1.479450    1.612508    1.112318
H      1.939647    1.532935   -0.676261
H      1.350134   -2.173123    1.104561
H      0.468883   -1.601052   -0.366959
H     -0.422303    1.894912   -0.644298
H     -0.065044    0.230507   -1.085088
H     -0.549039   -1.270727    2.197850
H      0.595243    0.034877    2.173843
H      4.307411    1.311212    0.535580
H      4.051219    1.048478   -1.204980
H     -5.981729   -2.487386    0.066517
H     -5.230349    2.672475   -2.051071
H     -3.017360    4.401373    1.244951
H     -3.224470   -3.089783    3.245611
H     -1.844016   -0.305819   -0.869076
