21

C     -2.211025    0.410465   -0.956902
C      0.471044   -1.022263    1.353517
C     -1.515458   -0.408472    0.064269
C      0.752870   -0.339464   -0.962340
C      1.923706    0.547181   -0.691204
C      0.237581    1.294886    0.574581
C     -0.081179   -0.094230    0.280061
N      1.616254    1.455895    0.171448
O      3.162865    0.390851   -1.299789
O     -0.404707    2.243223    1.055889
H     -2.422931    1.453513   -0.621956
H     -3.236853   -0.041492   -1.100087
H     -1.746488    0.381726   -1.957646
H      0.198960   -2.055841    1.057059
H      1.572218   -0.946262    1.374635
H      0.017711   -0.735022    2.333212
H     -1.598797   -1.476032   -0.225046
H     -2.056563   -0.307595    1.025094
H      1.056024   -1.401588   -1.038391
H      0.256290    0.007601   -1.887570
H      4.008478    0.642920   -0.804227
