56

C     -4.947226   -3.454943   -0.247031
C     -3.907847    3.630300   -0.728315
C     -4.213066    2.680482    0.216174
C     -2.756780    3.500225   -1.456765
C     -0.418427    1.790704    1.978234
C     -3.355126    1.608875    0.411009
C     -1.894568    2.426325   -1.262118
C      0.336127    1.878716    0.710881
C     -1.029806    0.475855    2.329646
C      3.665798    0.482031   -0.713180
C      2.753771   -1.653779   -1.061799
C      4.776107   -1.433086    0.185689
C     -2.419669   -1.267038    1.536780
C      1.599393    0.282384   -2.045307
C      2.701127   -0.302775   -1.238864
C     -2.172485    1.472913   -0.338127
C      4.699567   -0.049196   -0.005844
C      3.800496   -2.259974   -0.341124
C      0.151397    0.612360   -0.168044
C     -3.059345   -2.072303    0.544109
C     -1.293659    0.250429   -0.088041
C      5.799814    0.798780    0.613758
C      3.893124   -3.700521   -0.124816
F      5.512183    0.865896    1.938427
F      5.747923    2.070531    0.022882
F      6.945464    0.114483    0.352982
F      3.159956   -4.085943    1.006311
F      5.198784   -4.082859    0.099593
F      3.450073   -4.451032   -1.192761
N     -1.577346   -0.196757    1.201410
O     -2.567430   -2.309371   -0.577057
O     -4.335795   -2.685463    0.743221
O      0.591087    0.881682   -1.385545
H     -4.668365   -4.537594   -0.221643
H     -6.071250   -3.483818   -0.013766
H     -4.867295   -3.106290   -1.278828
H     -4.564793    4.481309   -0.903431
H     -5.092013    2.767147    0.810909
H     -2.516550    4.262004   -2.195676
H     -1.227482    2.597593    2.014081
H      0.222415    2.121912    2.871796
H     -3.618089    0.879029    1.158776
H     -0.991965    2.318633   -1.872876
H      0.220760    2.793328    0.112787
H      1.443228    1.853674    0.972301
H     -1.895963    0.702260    3.030726
H     -0.313075   -0.118992    2.942791
H      3.633356    1.579146   -0.844793
H      1.988138   -2.336239   -1.481867
H      5.603394   -1.834497    0.761167
H     -3.092243   -0.920181    2.399530
H     -1.768269   -2.034478    2.155576
H      1.335486   -0.353800   -2.880964
H      2.155855    1.219063   -2.617527
H      0.740488   -0.177194    0.325791
H     -1.489387   -0.489947   -0.886699
