57

C     -2.889410    2.371745    4.191990
C     -4.938335    1.662113   -0.357064
C      7.097541    0.425844   -1.976114
C     -2.433418   -0.612941   -3.494047
C     -2.541549    0.362927   -2.521561
C      1.394883    0.664265    0.164266
C      2.580437    1.341905    0.048157
C      5.070883   -1.303063    0.517687
C      5.516804   -1.869732   -0.804808
C     -1.379073   -2.004084   -1.877454
C     -1.693716   -2.858362   -4.116858
C     -2.513091    1.868007    2.008864
C     -3.931257    0.103472    1.101768
C     -1.830643   -1.840200   -3.162700
C     -1.502956   -0.994871   -0.914268
C     -2.087917    0.201003   -1.229748
C      1.410594   -0.684414    0.412026
C      3.774323    0.684080    0.174943
C     -0.995596   -1.226232    0.476459
C     -1.490828   -0.273220    1.493000
C     -2.561704    0.688073    1.053888
N     -1.569768   -3.763850   -4.936484
N      0.403332   -1.367891    0.523863
N      2.634467   -1.272150    0.528116
N      3.776429   -0.650764    0.420392
O      4.832326    1.326392    0.063374
O     -1.924142   -1.022938    2.604861
O     -2.906283    1.366265    3.257714
O     -4.904091    1.010587    0.820720
O     -2.188219    1.177910   -0.232493
S      5.726814   -0.708024   -2.130770
H     -3.221468    1.952089    5.182563
H     -1.885631    2.816685    4.384113
H     -3.567509    3.214781    3.967043
H     -4.055161    2.288614   -0.513767
H     -5.093830    0.949617   -1.197772
H     -5.836355    2.351909   -0.414459
H      7.888900    0.129686   -2.720114
H      6.862870    1.486232   -2.196646
H      7.592148    0.306300   -0.972617
H     -2.791220   -0.483614   -4.493024
H     -3.016535    1.331849   -2.776130
H      0.448413    1.230659    0.051580
H      2.532688    2.421367   -0.152688
H      5.832284   -0.648966    0.980070
H      4.936879   -2.163877    1.207733
H      4.741375   -2.613250   -1.132176
H      6.453630   -2.464680   -0.693313
H     -0.908517   -2.927795   -1.572793
H     -3.174719    2.647576    1.658751
H     -1.475698    2.265803    2.108337
H     -3.987337   -0.817661    0.466642
H     -4.100573   -0.208049    2.184977
H     -1.499141   -2.232118    0.736494
H     -0.654334    0.349030    1.927999
H      2.678333   -2.317887    0.719103
H     -2.636328   -1.666150    2.319516
