61

C      2.959790   -1.340695    1.514493
C      2.893303   -2.059790   -1.378164
C     -4.043236   -3.488938    0.116498
C     -6.955727    1.711964    1.638223
C     -6.219996    0.676199    2.217264
C     -6.508229    2.270237    0.459519
C     -5.067395    0.240299    1.596691
C     -5.332254    1.796820   -0.136515
C      4.959772    1.818263    0.756653
C      6.190329    1.350072    0.352894
C      1.947223    0.207180   -1.763747
C      0.523050    0.503368   -1.344163
C      2.520404    1.595016    0.764439
C      5.185248   -0.461006   -0.834998
C     -2.616993    1.091800   -1.219382
C     -0.850446    0.382118    0.608842
C      1.940649   -0.851943    0.515959
C      3.841344    1.113302    0.341430
C     -4.608137    0.783504    0.426369
C     -2.089029    1.048409    0.134755
C      6.312886    0.226727   -0.431783
C      3.956345   -0.014874   -0.446917
C      1.467954    0.540069    0.875865
C     -3.234508   -1.215997   -0.289973
C      2.677096   -0.688697   -0.823786
C     -3.361554    0.259415   -0.185387
N      0.378660    0.850571    0.012751
O      7.540696   -0.256516   -0.845496
O     -2.268715   -1.764286   -0.848091
O     -4.208196   -2.073538    0.240693
H      2.554879   -2.161708    2.155510
H      3.893902   -1.708929    1.062317
H      3.277138   -0.489750    2.185858
H      1.892486   -2.467931   -1.644725
H      3.298485   -2.744287   -0.592412
H      3.488080   -2.082135   -2.298523
H     -4.848996   -3.818345   -0.569463
H     -4.178540   -4.023374    1.072165
H     -3.053976   -3.714553   -0.351686
H     -7.860722    2.093679    2.076541
H     -6.593629    0.264632    3.131641
H     -7.082044    3.076041    0.006477
H     -4.500201   -0.562991    2.053660
H     -5.045502    2.278595   -1.056871
H      4.853399    2.707275    1.380177
H      7.092754    1.878082    0.661709
H      1.883661   -0.316073   -2.753883
H      2.464976    1.164178   -1.977007
H     -0.099427   -0.366759   -1.681531
H      0.186668    1.365888   -1.976662
H      2.649361    2.055774    1.788601
H      2.182278    2.469223    0.143209
H      5.235511   -1.341307   -1.445120
H     -3.122817    2.024937   -1.588689
H     -2.264747    0.486801   -2.077634
H     -0.806916    0.553486    1.743855
H     -0.886502   -0.741956    0.552625
H      1.073651   -1.507030    0.401770
H     -2.336122    2.009092    0.730969
H      1.077827    0.451727    1.931128
H      7.644747   -1.081337   -1.423522
