61

C      2.475763   -0.436729    2.391509
C      3.180141    2.338235    1.289623
C     -3.714534    0.807655    3.188918
C     -7.067821   -1.500240   -0.967473
C     -6.603594   -0.592925   -1.882953
C     -6.264008   -1.899037    0.071014
C     -5.299193   -0.081815   -1.740386
C     -4.989386   -1.417587    0.234046
C      4.629910   -1.800634   -0.766626
C      5.961502   -1.458412   -0.626600
C      2.006717    1.680639   -0.742565
C      0.520646    1.354034   -0.781976
C      2.224083   -1.402370   -0.602299
C      5.185021    0.652803    0.253021
C     -2.612951    0.829877   -1.655952
C     -0.640590   -0.721204   -1.304774
C      1.778913    0.255548    1.252593
C      3.612640   -0.959433   -0.414942
C     -4.520104   -0.495512   -0.698135
C     -2.085016   -0.584980   -1.340999
C      6.215890   -0.193630   -0.101009
C      3.870762    0.271390    0.096809
C      1.210573   -0.715327    0.242664
C     -2.909567    0.447450    0.879026
C      2.713160    1.161870    0.473198
C     -3.100806    0.026463   -0.524317
N      0.222160    0.005307   -0.496671
O      7.552839    0.151323    0.039946
O     -1.812847    0.878939    1.278834
O     -3.912805    0.401832    1.856158
H      3.289636    0.219673    2.796226
H      2.979238   -1.371969    2.084320
H      1.804356   -0.647102    3.250378
H      3.529987    3.109772    0.563290
H      2.287046    2.725980    1.839793
H      3.963435    2.115803    2.008476
H     -2.760810    1.321256    3.359903
H     -3.778707   -0.023201    3.916509
H     -4.549593    1.517353    3.438547
H     -8.064513   -1.914341   -1.045430
H     -7.184335   -0.243552   -2.714690
H     -6.660418   -2.612542    0.771103
H     -4.982932    0.631203   -2.481215
H     -4.362208   -1.730407    1.043596
H      4.432620   -2.801097   -1.182699
H      6.728080   -2.148788   -0.915148
H      2.065596    2.786618   -0.830671
H      2.507716    1.308678   -1.687774
H      0.245625    1.530143   -1.862523
H      0.025693    2.133979   -0.197796
H      2.028445   -1.285445   -1.703047
H      2.157038   -2.520228   -0.453495
H      5.412310    1.633056    0.659692
H     -3.090948    0.982919   -2.616796
H     -2.011694    1.711959   -1.338043
H     -0.425635   -1.836484   -1.080625
H     -0.184757   -0.681306   -2.374688
H      0.936407    0.842200    1.665342
H     -2.572577   -1.347411   -2.106331
H      0.657302   -1.479429    0.848393
H      7.751099    1.069181    0.421285
