45

C     -2.422483    1.797924   -2.959249
C     -0.589759   -2.891956    2.225352
C     -3.301391    2.398102   -2.094312
C     -1.481376   -2.264328    3.066885
C     -1.640279    0.728992   -2.603444
C     -0.398545   -2.462378    0.934551
C     -3.379856    1.885094   -0.828736
C     -2.178123   -1.194095    2.580032
C      2.614331    1.271455    1.054930
C      0.519488   -0.832995   -1.401101
C     -1.731602    0.222532   -1.315775
C     -1.102514   -1.363901    0.413026
C      2.944150   -0.186989    1.030099
C     -0.864968   -0.913335   -0.942979
C      1.681695    0.274329    0.467269
C     -2.600411    0.802330   -0.440788
C     -1.979353   -0.759490    1.258821
C      3.022621   -0.887490    2.337926
C      1.093576    1.614224   -1.421111
C      1.456670    0.231783   -1.023194
N      2.779177   -0.030469   -1.688875
O      3.841813   -1.804403    2.597001
O      2.127167   -0.489869    3.320959
O      1.592296    2.156067   -2.438169
O      0.195314    2.364447   -0.684022
O     -2.748732    0.326905    0.878988
H     -2.371235    2.222549   -3.977048
H     -0.031053   -3.742864    2.598649
H     -3.915283    3.252446   -2.402832
H     -1.606620   -2.633782    4.088399
H     -0.970401    0.305782   -3.345370
H      0.280507   -2.930341    0.261825
H     -4.064135    2.321578   -0.091058
H     -2.880905   -0.687741    3.219986
H      3.168664    1.990087    0.438492
H      2.325921    1.675020    2.045590
H      0.973872   -1.867526   -1.265874
H      0.474877   -0.801401   -2.550094
H      3.699249   -0.570957    0.302948
H     -1.325951   -1.772047   -1.589220
H      0.739353    0.105385    1.036815
H      3.260887    0.870270   -1.860126
H      2.494378   -0.391050   -2.633045
H      2.358077   -0.659579    4.301161
H     -0.059107    3.321684   -0.903285
