45

C      6.105343   -0.030976    0.095317
C      4.619390   -2.066250   -0.244624
C      3.993394    0.157565   -1.119047
C      2.728498   -0.345436   -1.700126
C     -5.611305   -0.062433   -0.062758
C     -4.720711    0.504472    0.816867
C      0.769817   -0.255121   -0.172996
C     -3.941844   -1.715355   -0.549122
C      0.058963    2.253051   -1.022468
C     -2.229800    1.923289    1.804602
C      4.852201   -0.611568   -0.461062
C      1.529301    0.353849   -1.140134
C     -5.208809   -1.181659   -0.746815
C     -0.358967    0.387152    0.382371
C     -3.456692   -0.008050    1.029605
C      1.172343    1.612779   -1.566993
C     -0.720342    1.638027   -0.035424
C     -3.042153   -1.123569    0.354550
C     -1.145517   -0.303798    1.414212
C     -2.336830    0.421534    1.907926
O     -6.116317   -1.756906   -1.641450
O      1.920341    2.230773   -2.534012
O     -2.606808    0.121014    3.243056
O     -1.823990    2.292028    0.492991
O     -1.761646   -1.421479    0.744380
H      6.974195   -0.321285   -0.550101
H      6.074791    1.087307    0.115707
H      6.329973   -0.411417    1.109375
H      4.326340   -2.585180   -1.195338
H      5.494383   -2.554915    0.202061
H      3.797763   -2.169144    0.518200
H      4.244963    1.207761   -1.225232
H      2.675173   -1.439493   -1.484488
H      2.771647   -0.271113   -2.808176
H     -6.587005    0.346308   -0.216862
H     -4.998084    1.387040    1.375439
H      1.005690   -1.239062    0.195682
H     -3.651193   -2.588181   -1.093676
H     -0.214005    3.237429   -1.360740
H     -1.405871    2.218144    2.515771
H     -3.168513    2.378752    2.115177
H     -0.520670   -0.758316    2.209049
H     -6.135478   -1.458487   -2.622713
H      2.712993    1.760312   -2.931974
H     -2.394955   -0.839395    3.403919
