29

C      4.021214   -0.624221    0.488438
C     -2.979792   -0.539562    1.074651
C     -2.583525    0.908899   -0.838770
C      1.612911    1.258225   -1.338775
C      3.475524    0.318118   -0.237567
C     -0.681681    0.360752    0.606717
C      1.297107   -0.871124   -0.087936
C     -2.159211    0.585883    0.578507
C      2.054299    0.274579   -0.613607
C     -0.196995   -0.783246   -0.197845
O     -0.529268   -0.710853   -1.549095
H      5.082862   -0.566174    0.754159
H      3.490409   -1.486222    0.857865
H     -3.947740   -0.120429    1.464401
H     -2.534887   -1.094797    1.924664
H     -3.274486   -1.218745    0.240911
H     -2.901034   -0.010833   -1.397871
H     -3.435812    1.638036   -0.841103
H     -1.775441    1.402718   -1.414635
H      2.263018    2.059607   -1.640000
H      0.606706    1.301036   -1.686181
H      4.076973    1.144320   -0.568280
H     -0.404592    0.089104    1.690578
H     -0.101871    1.263448    0.427371
H      1.706461   -1.794414   -0.551562
H      1.566046   -0.918328    1.014277
H     -2.378897    1.484649    1.191988
H     -0.586733   -1.769913    0.149436
H     -0.781566   -1.580513   -1.936977
