76

C      4.466390    0.352688    1.603942
C     -5.503855   -0.079477   -0.660856
C     -2.296179    6.370821   -0.001226
C      3.314252   -3.193723    0.577650
C      3.075828   -3.005460   -1.775393
C     -3.200954   -2.723799    0.589849
C      2.096185   -3.963501    0.694926
C      1.873116   -3.766879   -1.635984
C     -2.937864   -3.871459    1.281075
C      5.004931    2.119881   -0.817161
C     -4.966946    2.262169    0.601536
C      5.972275    1.388146    0.063363
C     -5.123939    0.981948    1.431479
C      4.932478   -1.790600   -0.674306
C     -2.951753   -0.902735   -0.920242
C     -1.294714   -2.921091   -0.845223
C      2.662340    2.671147   -0.533093
C     -3.096653    3.713766    0.193069
C      1.998650   -0.113101   -0.356596
C      3.768785   -2.733619   -0.630058
C     -2.407649   -2.216541   -0.472186
C      3.574246    1.682388   -0.614668
C     -3.500291    2.401901    0.289007
C      1.421161   -4.208600   -0.430765
C      3.288876    0.266535   -0.530837
C      4.593985   -0.378803   -0.646571
C     -3.263578   -0.033703    0.311379
C     -1.801397   -4.542088    0.873700
C     -1.010745   -4.072770   -0.152935
C      1.342975    2.243992   -0.352049
C      1.025266    0.906687   -0.267716
C     -1.785115    4.013367    0.003904
C     -2.675318    1.293288    0.206404
C     -0.920522    2.937538   -0.080264
C     -1.312376    1.595123    0.013114
N      5.369717    0.180090    0.507873
N     -4.665274   -0.031012    0.487355
O     -1.540406   -5.721611    1.591291
O     -1.347390    5.325317   -0.097834
O      0.140727   -4.940132   -0.367899
O      0.406852    3.278493   -0.264475
O     -0.335824    0.670042   -0.084811
H      4.981422    0.042192    2.559920
H      3.552330   -0.255461    1.551523
H      4.167131    1.405761    1.762492
H     -6.513020    0.360366   -0.325692
H     -5.788286   -1.144577   -0.856051
H     -5.168455    0.455147   -1.551420
H     -2.764117    6.418493    1.011824
H     -3.092641    6.219526   -0.757808
H     -1.788582    7.335681   -0.203532
H      3.680548   -3.111303    1.632799
H      3.222195   -2.765122   -2.868691
H     -4.111850   -2.187577    0.911273
H      1.894732   -4.281002    1.761366
H      1.441143   -3.926496   -2.657383
H     -3.566081   -4.229927    2.082932
H      5.063959    3.210743   -0.574845
H      5.329128    2.011329   -1.862218
H     -5.469618    2.079773   -0.357267
H     -5.389902    3.107705    1.125186
H      6.233437    2.042310    0.930899
H      6.909541    1.155958   -0.498014
H     -4.394288    1.007555    2.258881
H     -6.153576    0.854285    1.738840
H      5.620138   -1.924483   -1.588812
H      5.740956   -1.994008    0.092231
H     -2.398812   -0.298496   -1.641230
H     -3.950959   -1.049476   -1.409255
H     -0.684390   -2.599692   -1.759280
H      2.886014    3.734838   -0.597520
H     -3.796536    4.557212    0.262758
H      1.616513   -1.173303   -0.272101
H      5.178424    0.066401   -1.546650
H     -2.774530   -0.509518    1.213319
H     -2.102258   -6.059457    2.323757
