23

C     -2.281441   -1.178335   -0.300172
C     -1.965320    0.899683    0.924675
C      2.125659   -1.108798    0.564973
C      1.603441    1.278463   -1.356494
C      0.944142   -0.163579    0.528934
C      0.701111    0.161466   -0.942726
C     -1.242886   -0.159620    0.108685
I      2.615440   -1.676792    2.555465
I      1.340592    3.059916   -0.289393
O     -0.249370   -0.783724    0.865551
O     -0.631297    0.445861   -0.964546
H     -2.880999   -0.710143   -1.130709
H     -1.866205   -2.141022   -0.601591
H     -2.946888   -1.338791    0.573352
H     -3.054306    0.925401    0.705554
H     -1.574764    1.913664    0.747664
H     -1.861034    0.686992    2.010820
H      2.998239   -0.531039    0.171622
H      1.997178   -1.967165   -0.101411
H      2.653824    0.927523   -1.222926
H      1.469055    1.480187   -2.445753
H      1.149484    0.721996    1.127503
H      0.956346   -0.742144   -1.529079
