38

C     -2.893605   -2.487226   -0.163165
C      4.087560    1.302002   -1.168891
C      3.490396   -0.259826    0.668157
C     -4.003598    1.874907    0.625326
C     -0.630412   -1.477331    1.493260
C     -1.776901   -1.686382   -0.723558
C      0.736484    0.867461    0.565844
C      1.922605    1.499947   -0.076947
C      0.003191   -0.080810   -0.374319
C      2.955003    0.514035   -0.544064
C     -2.950372    1.012677    0.045704
C     -1.177704   -0.703601    0.281282
O     -2.726411    1.070862   -1.184063
O     -2.164995    0.123591    0.741082
H     -3.664304   -2.605449   -0.980660
H     -3.421866   -2.023896    0.678969
H     -2.563800   -3.533871    0.063966
H      4.931255    0.657313   -1.461863
H      4.405068    2.046568   -0.390043
H      3.658494    1.873362   -2.006842
H      3.824429    0.430335    1.469438
H      4.343683   -0.895217    0.388553
H      2.689819   -0.902170    1.079276
H     -4.871629    2.017041   -0.059143
H     -3.632411    2.883621    0.882719
H     -4.376537    1.434104    1.585222
H     -0.541480   -0.741146    2.323004
H     -1.340618   -2.252199    1.826270
H      0.368054   -1.855410    1.243963
H     -0.926582   -2.384287   -0.975824
H     -2.026920   -1.108177   -1.625856
H      1.089642    0.306467    1.455998
H      0.076199    1.666991    0.942361
H      1.589077    2.076711   -0.959745
H      2.398634    2.166399    0.661530
H      0.741317   -0.924047   -0.544278
H     -0.166040    0.347347   -1.359732
H      2.545276   -0.250698   -1.229307
