38

C      1.815615   -2.026754    0.032573
C     -3.281160   -1.578549    0.386587
C     -4.207819    0.694410    0.497322
C      4.918352    1.417453   -0.248786
C      0.647117    1.464455    0.899631
C      1.265220   -0.872001    0.810232
C     -0.957400   -0.429461   -1.062404
C     -1.934431    0.415175   -0.330727
C      0.403127    0.101651   -1.220438
C     -3.322731   -0.247494   -0.294024
C      3.583595    1.022720    0.330836
C      1.208044    0.416183    0.001103
O      3.426442    0.895887    1.569404
O      2.490707    0.786785   -0.465547
H      2.489328   -2.647324    0.687415
H      2.477066   -1.628391   -0.781380
H      1.049442   -2.719406   -0.365826
H     -3.434372   -2.376019   -0.389890
H     -2.311508   -1.806867    0.870376
H     -4.117751   -1.639679    1.132896
H     -3.921090    0.604735    1.560799
H     -4.103906    1.729320    0.158546
H     -5.256388    0.348348    0.344218
H      5.093876    2.502737   -0.026111
H      4.913681    1.205910   -1.328458
H      5.672874    0.852573    0.315731
H     -0.058309    2.176285    0.405311
H      1.524883    2.153553    1.156636
H      0.306973    1.098668    1.880806
H      1.753527   -0.722035    1.789072
H      0.194248   -1.121767    1.045252
H     -1.374968   -0.552959   -2.115850
H     -0.975573   -1.468287   -0.634043
H     -1.633387    0.518296    0.750569
H     -2.076602    1.402682   -0.793833
H      0.371300    1.003022   -1.909874
H      1.032755   -0.628933   -1.814623
H     -3.670779   -0.344922   -1.346441
