78

C     -5.601830   -2.351891    1.021403
C     -5.591835   -1.776966   -1.339734
C      5.429571    0.318107    1.634135
C      5.582035    1.482499   -0.425887
C     -0.092839    0.564557    2.177579
C     -0.138339    0.518697   -1.582086
C      2.800828   -0.779897   -1.893517
C     -0.910256   -1.627898    0.103211
C      0.398438   -1.770699   -0.041581
C      2.888709    1.679172   -0.319140
C      1.445412    1.864955   -0.268624
C     -5.653992   -0.015922    0.432431
C     -1.234168    2.143065    0.748778
C     -4.769015    0.859308    1.268009
C     -2.608197    2.056972    1.370906
C      4.688080   -2.224803   -0.303728
C     -3.582481   -1.348491   -0.050138
C     -1.499213   -0.308802    0.403032
C     -2.804600   -0.170390    0.325271
C      3.423764    0.391566    0.211673
C      1.245395   -0.616854    0.101460
C      5.499428   -0.957631   -0.409946
C      3.298618   -1.972615    0.137165
C     -3.784485    1.801419   -0.740098
C     -5.061485   -1.304097    0.009795
C      4.892384    0.249051    0.186896
C     -0.568240    0.815473    0.784875
C      0.565874    0.652556   -0.244782
C      2.647865   -0.749986   -0.429610
C     -3.504123    1.141399    0.556780
O      5.932500   -0.822108   -1.723160
O      2.665856   -2.661176    0.902393
O     -3.523025    3.030818   -0.845848
O     -4.311583    1.146947   -1.826375
H     -6.622599   -2.056030    1.350824
H     -4.967251   -2.362615    1.930191
H     -5.686339   -3.331035    0.529566
H     -4.890261   -1.500102   -2.154562
H     -5.621028   -2.883412   -1.295854
H     -6.607868   -1.405750   -1.458835
H      4.988628    1.211967    2.146040
H      6.512365    0.423473    1.545091
H      5.174323   -0.611791    2.183198
H      6.671137    1.232244   -0.400645
H      5.308889    1.651870   -1.453344
H      5.415525    2.327899    0.266976
H      0.915484    0.962108    2.406934
H     -0.745296    1.083865    2.942234
H     -0.131383   -0.497874    2.491406
H      0.439683    1.119685   -2.350659
H     -1.133387    1.052192   -1.575989
H     -0.348537   -0.486667   -1.916872
H      3.415449    0.095833   -2.257416
H      3.379208   -1.686026   -2.249066
H      1.915194   -0.764661   -2.519431
H     -1.559593   -2.501195   -0.002116
H      0.738463   -2.763890   -0.269548
H      3.382774    2.492171    0.300272
H      3.285774    1.882754   -1.335383
H      1.113294    2.505989   -1.112788
H      1.171113    2.469637    0.648503
H     -5.974316    0.567991   -0.458436
H     -6.648587   -0.183865    0.978523
H     -1.230688    2.651377   -0.217163
H     -0.656264    2.819156    1.449642
H     -5.330558    1.825869    1.400357
H     -4.629177    0.464177    2.299722
H     -2.553728    1.713790    2.395787
H     -3.062104    3.077664    1.325561
H      5.109962   -2.940563    0.465318
H      4.736025   -2.804456   -1.247669
H     -3.296250   -2.114217    0.757801
H     -3.198042   -1.859559   -0.964107
H      3.087292    0.370590    1.294353
H      1.441213   -0.562322    1.232707
H      6.466266   -1.190816    0.131149
H      6.790724   -0.385504   -1.827261
H     -4.730581    1.633716   -2.626670
