40

C     -0.873159    2.208166    1.835917
C      1.779796    1.084326   -1.702885
C      3.068490    0.080656    0.091548
C     -2.929064   -0.345515   -0.407567
C     -0.174869   -2.121307    1.456387
C      1.118107   -1.587658    0.840107
C     -1.036622   -0.886732    1.482145
C     -1.031115   -0.644020   -1.898383
C      0.288651   -1.230902   -1.495087
C      1.159492    1.580393    0.564062
C     -0.074670    1.298374    0.932552
C      1.662102    0.502389   -0.312912
C     -1.548977    0.169948   -0.735882
C      0.676530   -0.585976   -0.193007
C     -0.575930    0.020760    0.379633
O     -1.698794    1.511725   -1.094887
H     -1.312303    2.988459    1.212121
H     -0.208453    2.631265    2.625159
H     -1.662450    1.644500    2.356600
H      0.841341    1.423355   -2.134870
H      2.419757    2.008758   -1.587615
H      2.333541    0.434402   -2.402585
H      3.251602   -0.994019   -0.081504
H      3.176103    0.375486    1.159053
H      3.827747    0.640650   -0.492277
H     -3.588766   -0.022681   -1.265171
H     -3.367624    0.170451    0.482283
H     -3.001569   -1.433820   -0.367687
H     -0.612088   -2.927771    0.839790
H      0.025272   -2.516085    2.476443
H      1.714954   -2.379512    0.382214
H      1.660026   -1.064697    1.654336
H     -0.858851   -0.387990    2.456623
H     -2.117277   -1.120319    1.447530
H     -0.965532   -0.001565   -2.809850
H     -1.737729   -1.467430   -2.187808
H      1.011025   -1.113729   -2.298824
H      0.144475   -2.316139   -1.285781
H      1.747929    2.465262    0.845644
H     -2.531096    1.908545   -0.765567
