78

C     -5.901472    1.229591   -2.034633
C     -4.749452    2.341096   -0.216772
C      5.372636    0.026468    2.050865
C      5.708696   -0.610252   -0.268794
C     -0.863310    0.126688    1.824941
C      0.816345   -1.846834   -0.930042
C      3.099925    0.120841   -1.917877
C     -0.842028    0.757563   -1.543886
C      0.434651    1.023074   -1.431172
C      3.076603   -1.335342    0.872297
C      1.600353   -1.324259    1.295829
C     -5.606285    0.043397    0.065643
C     -1.256778   -2.069243    0.816936
C     -4.641524   -0.342153    1.203032
C     -2.617067   -1.782209    1.490174
C      4.003741    2.606741    0.434364
C     -3.647884    0.476267   -1.449352
C     -1.492756   -0.049849   -0.502138
C     -2.797396   -0.197264   -0.446255
C      3.440703    0.082530    0.591525
C      1.231002    0.548327   -0.313286
C      5.245916    1.756090    0.351980
C      3.042767    2.119718   -0.588504
C     -4.164338   -2.159349   -0.290136
C     -4.948840    0.984325   -0.872086
C      4.929890    0.314213    0.605401
C     -0.670739   -0.692477    0.570957
C      0.783229   -0.783625    0.145258
C      2.725938    0.638459   -0.582432
C     -3.513176   -1.076900    0.541563
O      5.843194    1.968917   -0.888475
O      2.561154    2.900862   -1.367951
O     -3.965862   -2.278770   -1.516170
O     -5.006231   -3.034136    0.369069
H     -5.549204    0.677028   -2.942420
H     -6.931122    0.913700   -1.789151
H     -5.943998    2.299138   -2.321005
H     -5.551561    2.468470    0.533902
H     -3.730090    2.366444    0.233955
H     -4.768988    3.112669   -1.016916
H      6.290020    0.608070    2.273309
H      4.575117    0.365787    2.732111
H      5.560704   -1.058700    2.114423
H      5.945816   -0.175512   -1.278738
H      5.282985   -1.617926   -0.319292
H      6.728414   -0.741178    0.201808
H     -0.672209   -0.478877    2.739163
H     -0.292277    1.050157    1.815994
H     -1.944332    0.468482    1.797542
H      0.509845   -2.803003   -0.410215
H      1.791220   -2.051515   -1.359000
H      0.071734   -1.685420   -1.723088
H      2.152377    0.003026   -2.523239
H      3.680931    0.872618   -2.534386
H      3.722855   -0.782601   -1.936309
H     -1.410284    1.124817   -2.421116
H      0.853290    1.631620   -2.254068
H      3.236768   -2.026454    0.050642
H      3.652131   -1.741522    1.740442
H      1.317410   -2.344033    1.547887
H      1.516921   -0.637425    2.162435
H     -6.475036    0.527450    0.514805
H     -5.890250   -0.884727   -0.444480
H     -1.491466   -2.550182   -0.139815
H     -0.693240   -2.672326    1.535349
H     -4.332437    0.591825    1.704033
H     -5.158483   -1.042954    1.869996
H     -3.048575   -2.808328    1.694139
H     -2.483479   -1.336356    2.476362
H      3.573093    2.635284    1.443529
H      4.327309    3.650343    0.182905
H     -3.149100    1.414884   -1.823281
H     -3.830741   -0.151347   -2.317337
H      3.057015    0.668396    1.484029
H      1.096515    1.282131    0.536068
H      5.960658    2.176711    1.111046
H      6.824994    1.847249   -0.860108
H     -5.612853   -3.648415   -0.151779
