42

C      2.453613    2.743052    0.692642
C     -2.060129    1.075013    1.346228
C     -2.049145    1.837733   -0.949065
C      0.278835   -1.257547    1.626842
C     -1.989811   -1.578745   -1.218742
C      2.846872    0.488597   -0.410852
C      2.563551   -0.908773    0.134360
C     -2.709640   -0.455056   -0.496051
C     -0.953820   -2.124253   -0.280397
C      0.562095    1.325816    0.152171
C      1.868591    1.471847    0.128183
C     -0.353624    0.233430   -0.303301
C      1.366660   -1.464766   -0.555029
C     -1.771862    0.616971   -0.053447
C      0.055404   -1.108860    0.161961
O      1.462197   -2.841105   -0.743734
H      1.644067    3.372756    1.062814
H      3.248299    2.530233    1.407791
H      2.887558    3.275142   -0.197748
H     -2.060030    2.188157    1.442911
H     -3.111239    0.763825    1.573551
H     -1.426489    0.646301    2.114879
H     -1.113977    2.423856   -1.048174
H     -2.810919    2.493973   -0.509775
H     -2.309555    1.484926   -1.962072
H     -0.663189   -1.627839    2.129209
H      0.997393   -2.120639    1.762333
H      0.729995   -0.406160    2.130026
H     -1.572306   -1.273642   -2.185118
H     -2.739350   -2.376353   -1.385718
H      2.846253    0.451640   -1.511003
H      3.843116    0.767034   -0.026688
H      3.451849   -1.532577   -0.169649
H      2.502459   -0.855073    1.223153
H     -3.275963   -0.912767    0.337668
H     -3.490874   -0.087457   -1.216722
H     -0.495038   -3.017773   -0.766756
H     -1.512336   -2.543556    0.606889
H      0.059766    2.199430    0.604943
H     -0.256324    0.202836   -1.432926
H      1.282596   -1.018895   -1.575479
H      1.774450   -3.080733   -1.640108
