42

C      2.325768    2.801947   -0.682128
C     -1.956838    1.251661   -0.955297
C     -2.002794    1.640836    1.447402
C      0.052896   -1.247543   -1.521531
C     -2.239446   -1.890210    0.251015
C      2.874886    0.608964    0.448760
C      2.617504   -0.736724   -0.213598
C     -2.701860   -0.513663    0.585896
C     -0.804447   -2.148050    0.567345
C      0.514795    1.353356   -0.037437
C      1.829232    1.532927   -0.066123
C     -0.286115    0.219395    0.496196
C      1.509490   -1.486919    0.432708
C     -1.715276    0.566708    0.384173
C      0.129044   -1.108223   -0.039990
O      1.681109   -2.847363    0.143429
H      1.469463    3.354887   -1.113708
H      2.785290    3.475853    0.067569
H      3.032973    2.586570   -1.524046
H     -2.005172    2.352993   -0.863188
H     -1.165228    1.034170   -1.696158
H     -2.936423    0.926783   -1.365123
H     -2.511507    1.184344    2.327055
H     -2.620801    2.457610    1.034847
H     -1.070230    2.088938    1.817718
H      0.513771   -2.249520   -1.769648
H     -1.004309   -1.349719   -1.895616
H      0.626433   -0.505763   -2.093871
H     -2.488104   -2.208857   -0.792500
H     -2.835243   -2.599384    0.899194
H      2.690409    0.513148    1.545742
H      3.883206    0.977030    0.269873
H      3.562322   -1.329035   -0.045940
H      2.492603   -0.663437   -1.291385
H     -3.138406   -0.487914    1.627772
H     -3.592652   -0.297804   -0.074050
H     -0.620296   -2.211718    1.650850
H     -0.518586   -3.128477    0.121975
H     -0.008365    2.191050   -0.483323
H     -0.039829    0.194029    1.601058
H      1.529430   -1.393395    1.535387
H      2.141301   -2.909479   -0.731307
