61

C     -7.065134   -1.555950   -1.615505
C     -4.672927   -0.397407    1.840653
C     -5.239436   -1.415419    1.181473
C     -1.240269    1.661187   -1.877284
C     -3.897906    1.998118    1.327020
C     -2.711571    1.805514   -2.054092
C     -3.135247    2.610018    0.178466
C      0.399568    0.491635   -0.480313
C     -1.538687   -0.643532    1.076579
C     -3.935617   -0.773498   -0.863842
C      6.079845    1.384599    1.794759
C     -0.931812    0.755488   -0.742144
C     -4.041623    0.706100    1.111838
C     -5.183071   -1.345099   -0.294067
C     -1.898101    0.184639    0.040277
C     -0.201752   -0.907927    1.338765
C      0.798396   -0.324078    0.537875
C      5.224201    0.931894    0.605484
C      6.005470   -0.135473   -0.106399
C      5.155501   -0.893151   -1.115191
C      3.947168   -1.405569   -0.354939
C      3.231207   -0.158268    0.186593
C     -3.367781    0.418362   -0.177201
N     -3.506104    1.654435   -0.883285
O      7.309548    1.876437    1.376547
O      0.185568   -1.733722    2.370301
O      7.003271    0.516830   -0.865003
O      5.900028   -1.900952   -1.677889
O      3.084099   -2.107635   -1.157534
O     -6.272896   -0.709685   -0.850310
O      2.096584   -0.619449    0.841795
O      4.031968    0.464981    1.147649
H     -7.928177   -1.066994   -2.058666
H     -7.402286   -2.439739   -1.034140
H     -6.426971   -1.942354   -2.436916
H     -4.679531   -0.378268    2.910303
H     -5.703587   -2.227978    1.709255
H     -0.809209    1.283495   -2.831058
H     -0.796594    2.671535   -1.723515
H     -4.280218    2.502858    2.202177
H     -2.965603    2.809719   -2.486257
H     -3.055045    1.073946   -2.804914
H     -2.074477    2.596491    0.416339
H     -3.543761    3.621540   -0.044550
H      1.159580    0.965264   -1.126741
H     -2.257179   -1.129055    1.736500
H     -4.136103   -0.532986   -1.928731
H     -3.175587   -1.583640   -0.885598
H      6.272302    0.469588    2.393251
H      5.534992    2.087239    2.441929
H     -5.247087   -2.421408   -0.636825
H      5.105864    1.797851   -0.049554
H      6.444701   -0.800117    0.647890
H      4.768902   -0.152846   -1.847342
H      4.279131   -1.964344    0.552149
H      2.985282    0.486357   -0.646044
H      7.910056    1.079506    1.231845
H      1.160895   -1.906817    2.535920
H      7.528780   -0.146953   -1.386310
H      6.635620   -2.138342   -1.059829
H      3.082821   -3.046973   -0.875251
