51

C     -1.688194   -3.889239    1.428072
C     -3.552120   -3.368650   -1.701919
C      2.313480    2.936580    3.790790
C      1.065830    2.380532    3.643086
C      3.272744    2.765359    2.824911
C      0.762628    1.635484    2.510112
C     -0.972584    2.115151   -3.579876
C     -1.224628    0.769053   -3.392584
C      0.371655    2.206574   -1.580805
C      0.047096    4.228398   -2.920944
C      5.048196    2.056018    0.335406
C      2.869314    0.928495   -0.199458
C     -0.563000   -2.893657   -0.420926
C     -2.611842   -1.476429   -0.553257
C     -0.190070    2.801541   -2.684195
C      3.683942    1.671268    0.577014
C      2.982507    2.026638    1.693627
C      0.124752    0.893165   -1.398980
C      1.727001    1.471213    1.553888
C     -0.666205    0.158331   -2.288067
C      0.643012    0.054938   -0.254613
C     -0.495318   -0.541727    0.398763
C     -1.124773   -1.559216   -0.620812
N      0.237077    5.300286   -3.083554
N      6.154454    2.372678    0.158944
N      1.642335    0.785083    0.380455
O     -0.080239   -1.363005    1.450870
O     -0.599551   -3.529001    0.758481
O     -3.370048   -2.113307   -1.391732
O     -0.817263   -1.161882   -1.961940
H     -1.412445   -4.478102    2.394161
H     -2.232896   -3.011749    1.898252
H     -2.398099   -4.590686    0.940757
H     -3.836167   -4.034170   -0.829057
H     -4.573504   -3.425509   -2.294058
H     -2.828184   -3.866775   -2.380256
H      2.580509    3.519960    4.669369
H      0.298829    2.494142    4.371057
H      4.264698    3.191365    2.907716
H     -0.193903    1.190711    2.359541
H     -1.417935    2.600764   -4.461996
H     -1.826126    0.181932   -4.060068
H      0.989041    2.729425   -0.864378
H      3.208211    0.519344   -1.161364
H      0.540001   -2.913924   -0.802015
H     -1.018910   -3.583928   -1.197667
H     -2.796537   -0.325630   -0.801971
H     -2.973849   -1.463380    0.524743
H      1.143236   -0.817430   -0.800566
H     -1.340975    0.104120    0.636469
H      0.834816   -1.681152    1.281584
