61

C     -8.808567   -0.324362   -1.811169
C     -6.829727    0.851409   -0.704955
C      7.194571   -1.172176   -2.575641
C     -3.042664    2.851076    1.329480
C      5.329908    1.240138    1.431948
C     -1.430447   -1.796683    0.405579
C      6.546723    1.824727    1.128824
C     -2.709293   -1.792076   -0.059950
C     -6.718406   -1.508111   -1.432273
C     -5.324249   -1.724353   -0.993019
C      5.609629   -0.246342   -0.373581
C     -1.561438    0.445877    1.087340
C      1.543365   -0.515212   -0.467492
C      2.357717    0.106062    2.851780
C     -7.398625   -0.387106   -1.316192
C      4.839055    0.190834    0.683086
C     -0.803625   -0.698072    0.991900
C      2.358312    0.336806    0.515578
C      1.375458    0.334521    1.695888
C      7.314324    1.386035    0.072943
C     -3.450061   -0.609610    0.054188
C      6.829698    0.337736   -0.679700
C     -2.869506    0.502050    0.627866
C      3.525888   -0.438778    1.011851
C      0.569455   -0.876667    1.437844
O      8.549848    1.994322   -0.218984
O      7.606996   -0.097924   -1.739773
O     -3.562292    1.689373    0.761197
O     -4.746217   -0.579258   -0.409324
O      3.359626   -0.681875    2.351110
O      1.228706   -1.585924    0.402893
H     -8.988177   -0.988911   -2.659989
H     -9.040797    0.712643   -2.116075
H     -9.498823   -0.558528   -0.954117
H     -6.577332    0.627980    0.344387
H     -5.964523    1.174008   -1.318848
H     -7.609460    1.660171   -0.653100
H      6.118416   -0.985100   -2.808551
H      7.786062   -1.245503   -3.487400
H      7.230030   -2.088024   -1.954758
H     -2.326044    3.301395    0.613115
H     -3.851170    3.579363    1.615438
H     -2.451019    2.660956    2.270713
H      4.753624    1.610202    2.268463
H     -0.879353   -2.743082    0.298838
H      6.938664    2.660785    1.724590
H     -3.139301   -2.680244   -0.505803
H     -7.241185   -2.363173   -1.901363
H     -4.753873   -2.054650   -1.903181
H     -5.331318   -2.577874   -0.257701
H      5.229579   -1.079349   -0.975451
H     -1.124061    1.307349    1.528805
H      0.605746   -0.008835   -0.726504
H      2.146228   -0.846166   -1.324759
H      2.669545    1.045657    3.309265
H      1.777495   -0.445631    3.648131
H      2.561711    1.334120    0.139745
H      0.864681    1.286048    1.787536
H      3.545190   -1.451007    0.508962
H      0.546142   -1.579776    2.322099
H      9.119157    1.678741   -0.990787
