31

C      4.291696   -0.288468   -0.618853
C     -4.236746    0.229713    1.546939
C     -1.543335   -0.065336    0.628446
C     -0.841037   -0.280187   -2.009196
C      2.777805    1.114000    0.807949
C      3.295912   -0.276902    0.505552
C     -3.943694    0.119139    0.079540
C     -2.559356   -0.028768   -0.324795
C     -0.227610   -0.205412    0.249926
C     -2.196946   -0.137233   -1.644743
C      0.152104   -0.315434   -1.067339
C      1.984692   -0.944286    0.100525
C      1.036040   -0.269035    1.048266
O     -4.943375    0.166708   -0.661431
O     -3.103498   -0.115496   -2.685987
O      1.532772    0.964688    1.359060
O      1.558434   -0.447659   -1.156530
H      5.231559   -0.777516   -0.289255
H      4.451010    0.763665   -0.933235
H      3.882466   -0.823367   -1.517486
H     -3.735805   -0.654000    2.020729
H     -3.802486    1.135970    1.992421
H     -5.300538    0.164308    1.784216
H     -1.844455    0.021587    1.668088
H     -0.570228   -0.364964   -3.060371
H      3.474585    1.696071    1.435739
H      2.715947    1.648040   -0.180850
H      3.665565   -0.703549    1.434710
H      2.012328   -2.025860    0.167576
H      0.851872   -0.894816    1.968981
H     -4.065679   -0.026768   -2.648593
