39

C      2.830922   -0.480627   -2.789519
C      2.638074    0.347114   -0.421511
C     -1.249108   -0.815199    3.122683
C     -2.323592    1.340092   -0.042567
C     -2.434404    0.315696    1.008281
C      0.504499   -1.811290   -0.084775
C      0.310553   -1.135130    1.183192
C     -0.007581    1.289411   -1.134616
C     -0.848974    3.213188    0.076432
C     -1.003493    1.795864   -0.461914
C      0.749044   -1.156747   -1.349626
C      0.445357    0.113314   -1.836485
C     -1.964365   -1.004664    0.628075
C      1.925531   -0.257851   -1.597058
C     -1.031837   -1.421679    1.756098
O     -1.808808    3.677850    0.714208
O     -2.024326   -2.167590    1.310436
H      3.554296   -1.257677   -2.490371
H      2.260155   -0.747035   -3.700387
H      3.373551    0.468403   -2.969513
H      3.667327    0.686135   -0.678792
H      2.812457   -0.506846    0.299666
H      2.146368    1.191438    0.053606
H     -2.319219   -0.652956    3.362839
H     -0.623418    0.064336    3.312678
H     -0.886637   -1.599346    3.852955
H     -2.947174    1.067081   -0.917537
H     -2.962811    2.191548    0.409989
H     -3.530382    0.230681    1.263199
H     -1.996758    0.768407    1.945541
H     -0.321393   -2.582008   -0.206008
H      1.390500   -2.523499    0.069305
H      0.430169   -0.035054    1.186026
H      1.031773   -1.467898    1.998831
H      0.825278    2.060430   -1.221277
H      0.062462    3.767406   -0.101591
H      0.760841   -1.992423   -2.148085
H      0.278381    0.161964   -2.984791
H     -1.713261   -1.134839   -0.417618
