46

C      0.842330   -3.939798   -0.145815
C     -3.304925    0.550479    1.031438
C     -3.488250    0.205519   -1.372166
C     -0.897357    2.634393   -0.323724
C     -0.197575    1.733941    0.697838
C     -1.121362   -2.465416    0.351636
C      4.896971    0.970542    0.130053
C     -1.492646   -1.534966   -0.774855
C      4.520053   -0.341538    0.316027
C     -2.297237    2.158990   -0.571198
C      2.576139    1.640762    0.010632
C      0.291677   -2.744911    0.610325
C      3.933273    1.955097   -0.021940
C     -0.214732    0.384434    0.211376
C      2.259829    0.328640    0.200005
C     -1.372548   -0.126663   -0.253630
C      3.180109   -0.686087    0.353644
C      1.049311   -0.278319    0.278583
C      1.255459   -1.653557    0.471944
C     -2.546551    0.708939   -0.284743
O      4.348481    3.256563   -0.206651
O      2.544958   -1.828260    0.508941
H      1.529951   -4.552654    0.473113
H      0.070365   -4.602376   -0.535830
H      1.473134   -3.562431   -0.996432
H     -3.489746    1.572551    1.475282
H     -2.738042   -0.033431    1.775467
H     -4.303318    0.085510    0.893500
H     -4.112420    1.080507   -1.729985
H     -4.218624   -0.534393   -0.999646
H     -2.862211   -0.131720   -2.211557
H     -0.319689    2.718280   -1.265092
H     -0.877047    3.648726    0.129018
H      0.511022    2.154133    1.341677
H     -1.094325    1.683685    1.474046
H     -1.637781   -3.436862    0.137075
H     -1.614673   -2.092112    1.276633
H      5.948460    1.218068    0.105523
H     -0.935731   -1.693676   -1.694659
H     -2.570572   -1.700115   -0.967000
H      5.242769   -1.143176    0.438269
H     -2.981721    2.743701    0.076829
H     -2.569083    2.411523   -1.615521
H      1.937642    2.471698   -0.157518
H      0.365613   -3.060888    1.698227
H      4.480619    3.826669    0.621321
