40

C      3.760669   -1.388344    1.079174
C      2.402403   -1.466175   -1.031620
C     -2.085828   -1.334636   -1.121253
C     -1.010666    1.956294   -1.577604
C     -2.415983    1.535631   -1.161858
C     -0.110804   -1.798751    0.741817
C     -1.284293   -1.014957    1.271003
C      0.648127    0.730072   -0.044782
C     -0.068075    1.721637   -0.364280
C      1.162984   -1.288514    1.270212
C      1.607443    0.075955    0.893661
C     -2.321776    0.862640    0.188623
C     -0.185210    2.926826    0.459431
C      2.389937   -1.170375    0.437797
C     -2.087844   -0.494052    0.125658
O      0.321648    3.195148    1.560537
O     -0.989655    4.012557   -0.014880
O     -3.416011   -0.034102    0.461684
H      4.355337   -0.469359    0.869036
H      4.195476   -2.272986    0.618485
H      3.656088   -1.465963    2.180880
H      1.460292   -1.776434   -1.473195
H      2.874059   -0.649976   -1.623558
H      3.102156   -2.340672   -1.185434
H     -2.038583   -2.436974   -0.883971
H     -3.082847   -1.249622   -1.654623
H     -1.275834   -1.132568   -1.828477
H     -0.809751    1.620258   -2.535010
H     -1.039430    3.092808   -1.665511
H     -3.038272    2.429503   -1.099282
H     -2.847002    0.832844   -1.877221
H     -0.248361   -2.843914    1.158733
H     -0.157078   -1.949097   -0.349427
H     -0.914825   -0.153094    1.880367
H     -1.963027   -1.605962    1.919155
H      0.572576   -0.061395   -0.848803
H      1.388619   -1.642589    2.323645
H      2.183944    0.586710    1.679180
H     -2.115564    1.508954    1.034862
H     -0.575041    4.952675    0.186850
