40

C      6.051012    0.821604   -0.094180
C      4.653272    0.196891   -0.102248
C      3.683531    1.349725    0.010627
C      2.236342    0.880215    0.015955
C      1.948791   -0.034973    1.153603
C      0.512930   -0.455507    1.157550
C      0.173623   -1.177867   -0.088816
C     -1.255328   -1.664408   -0.144709
C     -2.264252   -0.574050   -0.051353
C     -3.641290   -1.211357   -0.120658
C     -4.739428   -0.178092   -0.033239
C     -4.685035    0.808156   -1.112430
N     -4.659261    0.427053    1.275840
O     -4.580155    2.021267   -0.847542
O     -4.751284    0.378751   -2.427492
H      6.710367    0.345031   -0.847089
H      6.019254    1.895312   -0.317985
H      6.536312    0.681934    0.897625
H      4.562383   -0.301136   -1.088869
H      4.536245   -0.559263    0.671888
H      3.809518    1.988839   -0.882043
H      3.868202    1.965089    0.906460
H      2.077854    0.373168   -0.980631
H      1.609859    1.791255   -0.010809
H      2.567026   -0.974858    1.006582
H      2.236783    0.391666    2.139987
H      0.390766   -1.129547    2.039262
H     -0.078889    0.484598    1.295150
H      0.351398   -0.481034   -0.961379
H      0.875659   -2.018837   -0.230303
H     -1.396072   -2.178870   -1.117084
H     -1.410573   -2.424885    0.647045
H     -2.200291    0.111664   -0.921223
H     -2.232599   -0.017626    0.909917
H     -3.682041   -1.786673   -1.072760
H     -3.708004   -1.947036    0.693087
H     -5.700885   -0.739797   -0.064584
H     -5.595209    0.691893    1.613510
H     -4.010501    1.246229    1.193468
H     -4.820032    1.005478   -3.218733
