36

C     -5.732681   -0.049548   -0.175504
C      6.237211   -0.505027    0.935632
C     -4.658444    0.086264    0.889388
C     -3.322951    0.294418    0.152892
C     -2.223278    0.435658    1.151660
C     -0.919137    0.653339    0.420152
C     -0.608983   -0.508427   -0.478905
C      0.687882   -0.233217   -1.188552
C      3.045435    0.183702   -0.985613
C      1.781873   -0.074068   -0.165055
C      4.222133    0.363161   -0.104792
O      1.915252   -1.151447    0.675186
O      4.460503    1.444672    0.490297
O      5.120655   -0.678788    0.097993
H     -6.750251    0.055635    0.278970
H     -5.641807    0.793703   -0.888833
H     -5.649069   -1.005160   -0.709417
H      6.121578    0.396014    1.599084
H      7.159842   -0.380150    0.344561
H      6.287854   -1.422770    1.588071
H     -4.594672   -0.819861    1.506549
H     -4.804538    0.973623    1.513062
H     -3.222714   -0.645680   -0.460099
H     -3.449053    1.164224   -0.493597
H     -2.117608   -0.465804    1.765408
H     -2.419680    1.277879    1.820414
H     -0.986790    1.584288   -0.166095
H     -0.141869    0.767397    1.205227
H     -0.522940   -1.439640    0.126695
H     -1.390496   -0.637339   -1.256863
H      0.654614    0.738085   -1.747605
H      0.925162   -1.046238   -1.903449
H      2.829216    1.074663   -1.606896
H      3.191869   -0.685242   -1.656898
H      1.659997    0.862263    0.437594
H      2.855886   -1.400582    0.839914
