57

C     -3.693697   -0.271382   -1.776942
C     -4.655455   -1.169587   -1.053888
C      6.024018    1.676647    0.096454
C      6.259746   -0.422258   -0.967721
C      7.360614    1.636156    0.398018
C      7.594445   -0.397970   -0.632022
C      1.148704   -0.788578    1.230773
C      1.014795    0.325544   -0.979352
C     -0.141671   -1.385752    0.677149
C     -0.331295    0.742679   -0.376723
C      3.995877    0.642851   -0.947080
C     -4.778864   -2.844969    0.577654
C     -4.129169    2.040046   -1.475995
C     -3.401868    3.315613    0.424108
C     -3.450905   -3.059795    2.527090
C      5.441092    0.636303   -0.600273
C     -3.527400    0.939409   -0.945897
C     -4.091820   -1.674351    0.202927
C     -4.459365   -3.519808    1.719721
C     -4.077584    3.258170   -0.796518
C     -2.789930    2.208033    0.968478
C      3.246489    0.003736    0.141188
C     -2.865922    1.046204    0.271095
C     -3.089408   -1.247084    1.037599
C     -2.167137   -0.066279    0.944661
Br    -5.443467   -5.117916    2.171664
Cl    -4.842275    4.687563   -1.456919
Cl    -1.976192    2.305287    2.493791
N     -2.810443   -1.941524    2.147820
N      1.829667   -0.150209    0.128594
N     -1.002202   -0.370262    0.189774
N      8.164970    0.616436    0.047719
O      3.876756   -0.432202    1.136726
O      9.516926    0.618352    0.374104
H     -2.738260   -0.833487   -1.875576
H     -4.071014   -0.033569   -2.787993
H     -5.537603   -0.530029   -0.788686
H     -4.960630   -2.035468   -1.676707
H      5.400352    2.527953    0.400105
H      5.803298   -1.249089   -1.520003
H      7.796480    2.473854    0.951066
H      8.231924   -1.234385   -0.925616
H      1.750723   -1.592911    1.698854
H      0.928217    0.014299    1.974351
H      0.799399   -0.501068   -1.691107
H      1.447365    1.210153   -1.457462
H     -0.584904   -2.111752    1.357159
H      0.198269   -1.988509   -0.218041
H     -0.922966    1.145023   -1.244793
H     -0.100862    1.538981    0.341711
H      3.913585    0.020996   -1.885265
H      3.655180    1.666399   -1.193533
H     -5.587754   -3.231387   -0.051458
H     -4.659586    2.035624   -2.412156
H     -3.348728    4.239826    0.965551
H     -3.213859   -3.608348    3.428548
H     -1.946655    0.237790    1.987540
