66

C      8.519930    0.947730   -2.199093
C     -3.824764   -3.053857    1.992706
C      7.314280    1.594109   -2.294037
C      8.790224    0.058579   -1.190268
C     -2.463203   -2.496976    2.342346
C     -4.475056    2.291861   -2.448274
C     -5.902853    0.596708   -1.632685
C     -5.296769    2.518533   -3.533680
C     -6.750458    0.795094   -2.706652
C     -4.851776   -2.235335    2.743119
C      2.031899   -0.256975    1.638143
C      2.299478   -0.908215   -0.600700
C     -3.824235   -0.047259    2.884738
C     -4.768776    1.338712   -1.498988
C      1.468377   -0.761723    0.485164
C     -6.441002    1.748191   -3.640848
C      6.315681    1.360301   -1.350856
C     -3.069923   -0.154205    1.620222
C      7.794103   -0.184167   -0.244627
C      3.354365    0.071755    1.665257
C      3.653046   -0.571545   -0.570238
C     -2.187483   -1.336927    1.443543
C      6.567458    0.473865   -0.345787
C      4.205387   -0.066947    0.586426
C      5.616519    0.199410    0.703354
C     -3.883017    1.138249   -0.374047
C      5.150634    2.242426   -1.411403
C      0.051071   -1.126227    0.414708
N     -4.238331   -1.229037    3.534822
N     -3.994386    0.012293    0.480533
O     -7.333427    1.903304   -4.702112
O      8.131706   -1.086294    0.729638
O      3.893532    0.577601    2.840181
O      4.385053   -0.765509   -1.712094
O      6.085501    0.176796    1.906234
O     -2.966576    2.015936   -0.150146
O      4.980337    2.941639   -2.460336
O      4.227545    2.386395   -0.424459
O     -0.385221   -1.581076   -0.677339
O     -0.793885   -0.988422    1.481944
H      9.315847    1.121705   -2.933468
H     -3.897087   -4.141237    2.211019
H     -3.968087   -2.869870    0.890855
H      7.139667    2.276274   -3.090319
H      9.762885   -0.440669   -1.138115
H     -2.501150   -2.120521    3.387925
H     -1.668202   -3.239329    2.302279
H     -3.575633    2.915224   -2.387154
H     -6.208021   -0.184726   -0.909101
H     -5.108309    3.243578   -4.289557
H     -7.662790    0.181987   -2.793508
H     -5.689951   -1.892972    2.106387
H     -5.338911   -2.957055    3.465662
H      1.411319   -0.123967    2.524825
H      1.909697   -1.298491   -1.526910
H     -3.270919    0.604553    3.619958
H     -4.755962    0.559137    2.673630
H     -2.398080    0.746905    1.563289
H     -2.351985   -1.714277    0.390249
H     -4.870538   -0.985081    4.328789
H     -4.728103   -0.680280    0.283539
H     -7.175631    1.339129   -5.538070
H      7.551501   -1.384440    1.446750
H      3.346708    0.714827    3.684190
H      3.971401   -1.135417   -2.553504
H      3.375350    2.926224   -0.569461
