57

C      4.762300   -0.390226    1.803088
C     -3.770224    0.917210    0.906790
C     -1.118992    2.035052   -0.358787
C      1.515502    1.547147    1.341586
C      4.517378    0.083673    0.589423
C     -2.459286   -0.655982   -2.124891
C     -1.172070   -0.087362    1.698387
C      1.499161    0.953042   -1.473281
C     -3.575225   -0.162538   -1.262861
C     -1.297269    0.337549   -2.089756
C      0.267075   -0.479653    1.839066
C      2.936551    0.817553   -1.079333
C     -3.666976   -1.501684    0.759979
C      3.573506   -1.529053   -0.930957
C     -1.634294   -0.273611    0.288756
C      0.581514    0.190199   -0.560508
C     -3.108732   -0.191300    0.175432
C     -0.852640    0.599722   -0.650088
C      1.162598    0.192769    0.809746
C      3.241943   -0.266232   -0.124561
O     -3.117129   -2.606810    0.149377
O      4.058644   -2.464018   -0.018112
O      2.314670   -0.586199    0.794119
H      4.052635   -1.036307    2.303909
H      5.674642   -0.148497    2.330846
H     -4.353017    1.590586    0.209692
H     -3.118958    1.576763    1.481632
H     -4.561224    0.566159    1.635725
H     -0.543804    2.741554   -0.967268
H     -0.981517    2.329382    0.697288
H     -2.199286    2.221483   -0.638395
H      2.567726    1.560624    1.752391
H      1.414185    2.369076    0.634815
H      0.884107    1.826363    2.235893
H      5.248258    0.727418    0.116690
H     -2.794404   -0.680379   -3.183274
H     -2.097237   -1.658024   -1.864201
H     -1.304990    0.904222    2.117537
H     -1.762143   -0.793706    2.333940
H      1.272442    2.029244   -1.546141
H      1.410990    0.565128   -2.531042
H     -3.891427    0.822867   -1.607287
H     -4.449047   -0.849862   -1.434726
H     -0.506865   -0.097955   -2.703794
H     -1.630309    1.267446   -2.594041
H      0.606381   -0.136248    2.851414
H      0.377939   -1.582787    1.833380
H      3.592915    0.651144   -1.987631
H      3.348516    1.780439   -0.652344
H     -4.760917   -1.484655    0.490539
H     -3.614293   -1.504663    1.855170
H      4.436815   -1.242317   -1.590828
H      2.716573   -1.883093   -1.513131
H     -1.353437   -1.336220    0.010556
H      0.618242   -0.882430   -0.920923
H     -3.137633   -3.347867    0.827929
H      4.180139   -3.344135   -0.466938
