71

C     -1.453622   -6.752911   -0.180641
C     -1.567933   -0.425247   -3.603203
C      1.752411    0.210709   -1.612781
C     -7.954802    3.044040   -1.086797
C      7.677579    3.472539   -0.994550
C      6.555333    4.220034   -0.769143
C      7.826489    2.289967   -0.283613
C      5.584192    3.831810    0.133694
C      6.874098    1.874475    0.625578
C      0.228699   -4.979318    0.399733
C     -4.587767    0.643661   -0.537814
C     -4.395860    1.330052    1.716981
C     -5.715741    1.441124   -0.738859
C     -5.507167    2.122320    1.536655
C      0.598987   -3.664583    0.658099
C      2.664753   -1.183450    0.300109
C      1.632954   -1.363098    1.360562
C     -1.992574   -4.318750    0.057600
C      4.742248    2.165005    1.819164
C     -1.066564   -5.323282    0.097092
C     -1.583640    0.390533   -2.363316
C      5.738405    2.657331    0.835436
C     -3.924805    0.577164    0.666298
C     -6.168619    2.184681    0.323758
C     -0.335015   -2.649910    0.618003
C     -1.627109   -2.988967    0.317183
C     -1.547412    0.371558    0.102300
C     -2.727615   -0.266752    0.867360
C     -0.346862   -0.089408    0.855433
C      3.241839    1.196458    0.094366
N      2.543902    0.067445   -0.412863
N      0.268474   -1.391136    0.918079
O     -1.634536    1.627136   -2.397803
O      0.248183    0.778896    1.561869
O      3.177928    2.330491   -0.490981
O     -7.298682    2.997576    0.158770
O      4.011324    1.129255    1.224575
O     -1.540642   -0.241213   -1.153057
S     -3.048580   -1.912517    0.204979
H     -0.664031   -7.402035    0.204084
H     -1.518548   -6.886845   -1.284060
H     -2.436386   -6.974621    0.276910
H     -2.231174    0.016281   -4.395763
H     -2.021381   -1.433718   -3.391419
H     -0.555753   -0.629034   -3.968003
H      1.081830    1.106918   -1.550832
H      2.392738    0.268685   -2.526840
H      1.092472   -0.664272   -1.774101
H     -7.295707    3.543128   -1.822045
H     -8.928636    3.552301   -0.999941
H     -8.158023    2.023844   -1.486855
H      8.448448    3.776866   -1.708577
H      6.436598    5.139706   -1.320177
H      8.731764    1.724498   -0.491225
H      4.728938    4.445665    0.279050
H      7.037579    0.941739    1.156179
H      0.964746   -5.790443    0.429299
H     -4.274694    0.078524   -1.398749
H     -3.885633    1.293470    2.683748
H     -6.208202    1.460817   -1.714421
H     -5.899613    2.725212    2.345742
H      1.605719   -3.480356    0.888672
H      2.619712   -1.970151   -0.485176
H      3.668618   -1.181154    0.802910
H      1.719683   -0.392949    1.966400
H      1.894320   -2.079702    2.167270
H     -3.018192   -4.506604   -0.169785
H      5.292838    1.704735    2.688213
H      4.096905    3.000346    2.159200
H     -1.591802    1.455849    0.104147
H     -2.467382   -0.270417    1.951310
