65

C     -5.865421    0.648011   -0.966423
C     -5.943229    1.680542    0.073520
C     11.735209    0.075107    0.156864
C     11.203558    1.063865   -0.634796
C     10.882155   -0.808319    0.774718
C     -4.737843    0.191258   -1.430703
C     -6.697707    1.133488    1.291720
C      9.847252    1.176082   -0.810781
C      9.505440   -0.689913    0.592032
C     -3.383625    0.600014   -1.021373
C     -8.091587    0.708867    0.904790
C      7.542122    0.410540   -0.429135
C      6.349507    0.506669   -0.616006
C      4.413297    0.373525   -2.111373
C      4.116855    1.009561    0.169332
C     -2.686118   -2.695346    0.642137
C     -1.167144   -2.532690    0.814157
C      3.068312    0.492636   -2.374982
C      2.763194    1.123910   -0.119221
C     -2.269957   -0.742598    1.808712
C      8.962319    0.281320   -0.186627
C      4.948711    0.625683   -0.859661
C     -3.185617   -1.261039    0.683514
C     -0.953083   -1.063606    1.060358
C      2.216284    0.878619   -1.354590
C     -2.625174   -0.569655   -0.501916
C     -8.785931    0.205667    2.101857
C     -1.173388   -0.204949   -0.141905
N     -0.295477   -0.409499   -1.240101
O     -8.264606    0.231918    3.212414
O    -10.072610   -0.317396    1.944927
O      0.041349    2.181337   -0.698947
O      0.171234    1.524598   -3.002859
S      0.507099    1.059377   -1.619386
H     -6.795454    0.226306   -1.393207
H     -5.003232    2.059236    0.462372
H     -6.524780    2.581657   -0.267457
H     12.831105   -0.011885    0.294743
H     11.842249    1.776650   -1.135642
H     11.291028   -1.591531    1.398248
H     -4.770095   -0.589981   -2.216277
H     -6.745832    1.956821    2.006239
H     -6.157029    0.297481    1.729973
H      9.386080    1.938082   -1.426733
H      8.822966   -1.397859    1.086093
H     -2.865066    0.890521   -1.993218
H     -3.317280    1.499179   -0.406535
H     -8.693276    1.564067    0.531671
H     -8.066162   -0.123817    0.164684
H      5.047000    0.067286   -2.933260
H      4.433319    1.222589    1.162142
H     -2.831813   -3.040340   -0.408063
H     -3.125723   -3.335330    1.400794
H     -0.925426   -3.056163    1.767559
H     -0.616902   -2.929810   -0.054557
H      2.653772    0.289796   -3.342333
H      2.077233    1.426985    0.673964
H     -2.352309    0.340615    1.929806
H     -2.359974   -1.339872    2.717135
H     -4.231902   -1.142395    0.879446
H     -0.074027   -0.808845    1.656727
H     -2.505902   -1.328591   -1.316531
H     -1.122039    0.848926    0.194469
H     -0.706894   -0.876571   -2.053051
H    -10.669013   -0.406079    2.780532
