57

C     -4.897872    0.405357    1.020798
C      3.458250   -0.798348    1.420489
C      1.006722    1.217689    1.513976
C     -1.450813   -0.885291    1.854766
C     -4.658025   -0.201297   -0.126543
C      2.667818    2.079560   -0.583677
C      1.013254   -1.789171    0.382653
C     -1.602192    1.595358    0.157644
C      3.585962    0.962616   -0.310892
C      1.242015    1.729435   -0.851883
C     -0.419682   -1.973020   -0.053770
C     -2.873438    1.328935   -0.615840
C      3.697865   -1.369576   -0.921295
C     -3.473844   -0.406959   -2.208190
C      1.554278   -0.538023   -0.199229
C     -0.694566    0.438380   -0.162298
C      3.020226   -0.365955    0.037695
C      0.732025    0.683407    0.154164
C     -1.308932   -0.798405    0.381770
C     -3.269648   -0.084100   -0.714489
O      5.082567   -1.199777   -0.680694
O     -4.098101   -1.619137   -2.385285
O     -2.519922   -1.043311   -0.199438
H     -4.161507    0.981205    1.565899
H     -5.880161    0.341426    1.468432
H      3.963252   -1.770801    1.445615
H      4.220733   -0.050932    1.792166
H      2.669265   -0.803669    2.166190
H      2.075953    1.450971    1.609334
H      0.722101    0.584388    2.348957
H      0.467871    2.191015    1.604155
H     -1.610751    0.035557    2.401422
H     -2.339059   -1.543810    2.101977
H     -0.599640   -1.417585    2.370184
H     -5.457312   -0.753012   -0.595593
H      2.652581    2.849050    0.246313
H      3.002763    2.696350   -1.472577
H      1.137192   -1.931031    1.449724
H      1.556780   -2.653784   -0.101566
H     -1.233943    2.576678   -0.132369
H     -1.887738    1.663733    1.222839
H      4.338013    0.927170   -1.159159
H      4.248894    1.292019    0.549280
H      1.109487    1.235342   -1.853048
H      0.656172    2.642926   -0.860119
H     -0.819393   -2.856033    0.490920
H     -0.480213   -2.102208   -1.141024
H     -2.725534    1.809898   -1.627921
H     -3.657541    1.986808   -0.135525
H      3.479713   -2.405017   -0.668680
H      3.523394   -1.096137   -1.967010
H     -4.083848    0.378113   -2.690837
H     -2.503234   -0.422100   -2.744416
H      1.437330   -0.635849   -1.323056
H     -0.749395    0.332279   -1.291066
H      5.254745   -0.796250    0.204681
H     -4.120917   -2.105077   -1.507354
