64

C     -4.705622    2.043429   -0.825725
C     -4.792827    1.413169    0.514306
C     -3.589541    2.273341   -1.491745
C     -5.604642    0.138316    0.481639
C     -2.261458    1.931078   -0.992439
C     -7.009328    0.298746    0.030859
C     -1.981830   -1.018016   -3.250159
C     -0.581345   -1.478021   -2.879392
C      7.692604   -2.336550    0.901830
C      2.112336    0.776876    1.805068
C      6.628124   -1.531389    0.552222
C      2.676648    0.020439    2.806650
C     -1.771597   -1.162993   -0.933669
C      6.762931   -2.636887    3.078743
C      3.886828    0.251389    0.369263
C     -2.409123   -0.276054   -2.009427
C     -0.334717   -1.017687   -1.487959
C      7.757705   -2.886205    2.160991
C      2.688734    0.920242    0.561533
C     -1.534139    0.957833   -1.939564
C      5.620714   -1.267568    1.453499
C      4.465518   -0.514097    1.371064
C      3.869267   -0.641862    2.606493
C      5.693840   -1.822057    2.712164
C     -7.861755    1.163610    0.835490
C     -0.239004    0.497304   -1.362664
N      0.933638    1.095435   -1.724582
N      8.871894   -3.720414    2.503610
O     -9.033673    1.399458    0.426043
O     -7.462635    1.741384    2.023424
O      9.873054   -3.983848    1.608501
O      8.954587   -4.229990    3.637597
O      3.145461    2.384715   -1.525609
O      1.408387    3.140545   -0.076094
O      4.627650   -1.417421    3.355593
S      1.975307    1.878918   -0.714800
H     -5.638146    2.354164   -1.325962
H     -5.404133    2.150939    1.127146
H     -3.863421    1.315264    1.060178
H     -3.644212    2.750376   -2.484419
H     -5.606601   -0.362013    1.472644
H     -5.102447   -0.555940   -0.225043
H     -1.607628    2.830113   -0.830470
H     -2.267152    1.408471   -0.025673
H     -7.086151    0.592183   -1.043950
H     -7.468721   -0.733410    0.051013
H     -2.678420   -1.843122   -3.418452
H     -1.979145   -0.355900   -4.146463
H     -0.618939   -2.585685   -2.865051
H      0.175981   -1.192550   -3.615518
H      8.508980   -2.562443    0.201516
H      1.172179    1.297039    1.967990
H      6.570375   -1.098133   -0.430418
H      2.199798   -0.078308    3.786306
H     -1.820210   -0.723436    0.060757
H     -2.118358   -2.204893   -1.014890
H      6.806637   -3.063804    4.067314
H      4.378333    0.332217   -0.587510
H     -3.455742   -0.107842   -1.898651
H      0.389305   -1.561795   -0.909290
H     -1.481761    1.359870   -2.955164
H     -0.357267    0.645339   -0.240405
H      1.383741    0.724277   -2.592493
H     -7.858867    2.666599    2.232206
