39

C      4.360125    0.803613    0.405147
C     -0.582227   -2.185551    0.332988
C     -1.450138   -1.456107   -1.799755
C     -3.864242    1.610524    1.180613
C     -3.408688    1.805115   -0.082259
C     -3.382805    0.568309    1.920072
C     -2.461125    0.927420   -0.581174
C     -2.434199   -0.310589    1.423606
C      2.084656   -0.081065    0.965777
C      0.640506    0.392168    0.788526
C      2.613353    0.380583   -1.364551
C      2.899257    0.821006    0.053201
C     -1.972355   -0.119511    0.152020
C      0.256872   -0.030002   -0.613358
C      1.367612   -0.429732   -1.436582
C     -0.910696   -0.972100   -0.484186
O      1.340525   -1.381064   -2.177548
H      4.662769    1.785470    0.838546
H      4.993431    0.661645   -0.490377
H      4.512221    0.067028    1.198003
H     -1.446613   -2.852066    0.343465
H     -0.267050   -1.981019    1.356505
H      0.235341   -2.720355   -0.206539
H     -0.887004   -2.359674   -2.148041
H     -1.543289   -0.691098   -2.564509
H     -2.477789   -1.852586   -1.612390
H     -4.608700    2.282633    1.594909
H     -3.763703    2.620391   -0.682438
H     -3.737553    0.401469    2.930922
H     -2.106907    1.086187   -1.588995
H     -2.057346   -1.127575    2.009091
H      2.408479   -0.061294    2.002134
H      2.141664   -1.114908    0.533574
H      0.697668    1.500463    0.866302
H     -0.017842    0.049724    1.576168
H      3.469779   -0.101327   -1.862369
H      2.379047    1.317360   -1.938323
H      2.505842    1.845488    0.258312
H     -0.188876    0.901025   -1.096484
