39

C     -4.131041    1.049859   -0.348626
C      0.347873   -0.605120   -1.868102
C      0.938120   -2.360280   -0.139767
C      4.528223    1.041134   -0.055487
C      4.387830   -0.285669    0.296130
C      3.412699    1.707653   -0.502431
C      3.142916   -0.910622    0.194693
C      2.165574    1.100992   -0.611316
C     -2.753830   -0.452251    1.033447
C     -1.670947   -1.057680    0.176314
C     -1.770742    1.648078    0.098959
C     -3.016762    0.966007    0.662594
C      2.042547   -0.218901   -0.257930
C     -0.339294   -0.409570    0.514706
C     -0.569410    1.014380    0.708329
C      0.712038   -0.876789   -0.422458
O      0.188909    1.691962    1.354324
H     -3.979938    1.885314   -1.057602
H     -4.183112    0.094795   -0.908120
H     -5.116989    1.158732    0.194232
H      1.275044   -0.567169   -2.521577
H     -0.259849   -1.432534   -2.313040
H     -0.100841    0.401406   -1.983733
H      0.011274   -2.960684   -0.181161
H      1.629730   -2.805674   -0.895313
H      1.328723   -2.480021    0.921074
H      5.504473    1.550502    0.005957
H      5.249189   -0.830685    0.647590
H      3.513811    2.734977   -0.768228
H      3.146981   -1.948088    0.499756
H      1.318931    1.691894   -0.983682
H     -2.533357   -0.550627    2.125542
H     -3.675204   -1.081148    0.869298
H     -1.694363   -2.138121    0.246057
H     -1.951141   -0.787998   -0.889746
H     -1.874456    2.721793    0.432762
H     -1.790430    1.652594   -0.996959
H     -3.345475    1.532997    1.585118
H     -0.087705   -0.885437    1.525239
