40

C     -2.890749   -1.251225   -0.906708
C     -2.107806   -2.332498   -0.276402
C     -1.928792   -0.184774   -1.404897
C      2.768537    0.663418   -1.410047
C      3.664101   -0.354419   -1.176345
C     -0.777209   -2.060602    0.263642
C     -0.166727   -0.257914    1.880840
C     -0.382164    1.184780    2.134165
C      0.565912    1.707452   -1.190613
C      1.959105   -1.522759    0.066995
C      0.313446    3.356726    1.246770
C      1.477037    0.571930   -0.899530
C      3.261349   -1.447335   -0.438612
C     -1.281906    0.350862   -0.173713
C      1.057837   -0.506805   -0.163674
C     -0.645243    1.689346   -0.291120
C     -0.307219   -0.654526    0.402969
Cl     4.427697   -2.721606   -0.162158
N     -0.237439    2.072058    1.040059
O      0.685287    3.738295    2.400560
H     -3.519691   -1.650563   -1.712473
H     -3.523766   -0.736039   -0.123038
H     -2.750673   -2.735095    0.567479
H     -2.092931   -3.211064   -0.991701
H     -1.199631   -0.707097   -2.082535
H     -2.445152    0.626044   -1.949041
H      3.074576    1.522387   -1.986126
H      4.668647   -0.263966   -1.583915
H     -0.026622   -2.625957   -0.370306
H     -0.630979   -2.547556    1.275666
H     -0.953071   -0.835557    2.409944
H      0.800760   -0.622899    2.287999
H     -1.370572    1.358185    2.649298
H      0.364870    1.488889    2.927033
H      1.124083    2.641140   -0.960757
H      0.311416    1.743536   -2.264879
H      1.735911   -2.417209    0.632997
H      0.453099    4.085188    0.457805
H     -2.093275    0.453506    0.607897
H     -1.382050    2.393724   -0.733528
