26

C      3.508906    0.192453    0.477281
C     -3.018193    0.601902   -0.158491
C      1.168919    1.338100    0.376342
C     -0.262543    0.879340    0.530759
C      1.563462   -1.033242   -0.236673
C      2.039190    0.133028    0.188569
C     -2.053497   -0.483387   -0.512994
C     -0.628153    0.046033   -0.664347
C      0.140136   -1.256108   -0.564091
C     -1.856044   -1.480898    0.554160
O     -2.725026   -1.889908    1.346581
O     -0.537403   -1.891341    0.531040
H      3.858044   -0.800595    0.810205
H      3.688778    0.942331    1.274433
H      4.052316    0.475502   -0.471248
H     -4.048292    0.196901   -0.336853
H     -2.926784    0.975012    0.860284
H     -2.895274    1.415087   -0.913818
H      1.514011    1.906674    1.277542
H      1.245195    1.981438   -0.502343
H     -0.947093    1.707727    0.714145
H     -0.276803    0.181419    1.416957
H      2.234871   -1.886373   -0.359380
H     -2.361357   -0.961023   -1.459349
H     -0.477725    0.556174   -1.623057
H      0.000360   -1.846246   -1.492546
