65

C      7.809456   -1.225773    0.318318
C      5.045563    2.286043   -0.692295
C     -5.478896    0.571143    0.546035
C     -5.203332    0.395396   -1.855230
C     -2.672569   -0.830801    1.630240
C     -0.227724    1.311662    2.306489
C      7.498960   -0.465457   -0.946615
C     -3.510033   -2.218486   -1.054181
C     -2.946533    1.868094   -0.239001
C     -4.685386   -1.526884   -0.466365
C     -2.177208   -1.789452   -0.552061
C     -2.053373    2.169980    0.923152
C      2.614816    2.151099   -0.238632
C      0.276754   -0.770490    0.393353
C      3.808223    1.481308   -0.409155
C      1.471357    0.065612    0.119720
C      1.465669    1.426471    0.023507
C     -3.181113    0.418843   -0.510172
C     -0.892069    0.147887    0.152069
C      3.850703    0.094990   -0.317810
C      2.687660   -0.607623   -0.054671
C      5.124491   -0.601742   -0.501907
C     -4.599647   -0.021800   -0.499298
C     -2.248522   -0.495223    0.271773
C     -0.736776    1.434123    0.887429
O      2.698297   -1.978425    0.041315
O      5.274462   -1.846996   -0.441020
O      6.259830    0.185102   -0.765858
O      0.273981    2.172323    0.188243
H      8.026509   -2.283035    0.087150
H      6.961210   -1.195078    1.039333
H      8.694990   -0.772844    0.801878
H      5.419279    2.052349   -1.689705
H      5.746663    2.170828    0.146358
H      4.728022    3.366096   -0.705998
H     -5.894540   -0.232716    1.225171
H     -5.046927    1.329617    1.194407
H     -6.418012    1.042617    0.126096
H     -5.979515   -0.342053   -2.157352
H     -4.406971    0.335748   -2.638370
H     -5.608170    1.432376   -1.784713
H     -1.931762   -0.574057    2.445177
H     -3.629552   -0.422631    1.984309
H     -2.780792   -1.950320    1.753467
H     -1.049821    1.569715    3.040599
H      0.551330    2.102085    2.536515
H      0.269575    0.362986    2.532526
H      7.397723   -1.139150   -1.824007
H      8.302897    0.254758   -1.132891
H     -3.620462   -3.307366   -0.841605
H     -3.590311   -2.137684   -2.174975
H     -2.503390    2.429311   -1.118335
H     -3.900551    2.444606   -0.053624
H     -5.584845   -1.852237   -1.043037
H     -4.890310   -1.911662    0.574014
H     -1.654547   -2.541890    0.054813
H     -1.538244   -1.560293   -1.448106
H     -2.610234    2.011504    1.864627
H     -1.810864    3.255023    0.878004
H      2.600184    3.222146   -0.312265
H      0.283172   -1.286311    1.343710
H      0.210414   -1.569796   -0.402487
H     -2.824036    0.263560   -1.580155
H     -0.806153    0.404473   -0.951806
H      3.340999   -2.678652   -0.026092
