29

C      3.386168   -0.116821   -0.457661
C     -1.420481    2.371698    0.613047
C     -0.652364   -2.180480   -0.972466
C      2.852923   -0.360743    0.693561
C      1.441655   -0.476572    1.042775
C     -1.960067   -0.574576    0.379883
C      0.246171    0.932414   -0.532683
C     -1.167511    1.436466   -0.557739
C     -0.609654   -1.209337    0.208982
N     -2.159037    0.402330   -0.633413
N      0.468796   -0.307767    0.049881
H      4.456303   -0.058366   -0.575688
H      2.771604    0.032111   -1.331501
H     -0.454868    2.800126    0.941698
H     -1.938870    1.864748    1.447472
H     -2.067403    3.231523    0.319340
H     -0.901929   -1.662297   -1.898050
H      0.326954   -2.699304   -1.016299
H     -1.428382   -2.955940   -0.733146
H      3.540933   -0.506262    1.549451
H      1.244734    0.251439    1.875478
H      1.295586   -1.492928    1.514026
H     -2.114603   -0.184214    1.402706
H     -2.724321   -1.380136    0.236682
H      0.886170    1.709204   -0.029037
H      0.583107    0.916126   -1.598636
H     -1.339341    2.082359   -1.473789
H     -0.437192   -1.846250    1.101430
H     -2.125081   -0.018550   -1.566305
