45

C      3.309612   -1.035075   -1.046508
C     -3.112583    0.848190    1.753520
C      4.626683   -1.522368   -1.038388
C     -4.477327    0.911996    1.944914
C      4.028233    0.740178    0.328325
C     -3.498516   -0.670206   -0.008597
C     -1.129135    1.795864   -1.236242
C      0.354209   -1.474566   -0.344176
C      7.463237   -0.310991    0.918903
C     -7.149134   -0.524449   -0.062968
C      3.003487    0.107955   -0.356703
C     -2.615704    0.050659    0.768529
C     -0.809539    0.433373   -0.897204
C      0.573157   -0.095696   -1.021971
C      5.638702   -0.886687   -0.354069
C     -5.373008    0.196453    1.175175
C      5.320396    0.265542    0.338396
C     -4.864726   -0.608459    0.180489
C      1.633526    0.635740   -0.338884
C     -1.158591   -0.090245    0.478165
O     -0.576565    2.860032   -0.624554
O      1.450215    1.726184    0.291582
O     -0.862978   -1.431443    0.303446
O      6.998350   -1.118654   -0.163708
O     -6.763575    0.076696    1.151775
O      6.493083    0.713428    0.937316
O     -5.964658   -1.211262   -0.438619
H      2.560677   -1.575417   -1.608862
H     -2.435117    1.422003    2.374259
H      4.865704   -2.426463   -1.584472
H     -4.918279    1.544111    2.729622
H      3.765309    1.653362    0.874410
H     -3.148990   -1.322145   -0.808950
H     -2.259495    1.951519   -1.211692
H     -0.924437    1.932688   -2.351129
H      0.366358   -2.266475   -1.142422
H      1.199332   -1.691366    0.350601
H      7.424324   -0.924047    1.850186
H      8.485688    0.070064    0.723363
H     -7.973518   -1.246755    0.174640
H     -7.467839    0.202267   -0.829936
H     -1.436057   -0.242260   -1.588819
H      0.859335   -0.282194   -2.082227
H     -0.519838    0.289855    1.272963
H     -0.980007    3.155117    0.220521
