55

C      3.972284   -0.929103   -0.647011
C      2.373022   -4.165635   -0.369560
C     -4.524856   -1.298636   -2.402349
C     -4.276562   -0.251254   -0.169820
C     -2.869044   -2.136296   -0.807925
C      1.547518    5.163424   -0.271928
C      2.590677   -1.264256   -1.095916
C      2.224651   -3.050560    0.618521
C     -0.952457    1.958603    1.631107
C      1.697083   -1.785662   -0.008371
C      0.349040    2.476832    2.176715
C     -0.654625    0.570654    1.085891
C      0.821221    0.580398    0.764174
C      1.454892   -0.732644    1.042091
C      1.353852    1.414986    1.907762
C      0.807850    3.730510    1.563614
C     -1.580552    0.554252   -1.167799
C     -3.538072   -0.910955   -1.340181
N     -1.526170    0.240693    0.040119
N      1.727021   -0.775763    2.276847
O      0.950626    4.764453    2.300124
O     -0.639423    1.403591   -1.721044
O      1.106014    3.901664    0.238236
O     -2.627084    0.010517   -1.925395
O      1.350618    0.398835    2.927830
H      4.100497    0.174153   -0.448676
H      4.318510   -1.431956    0.263848
H      4.742374   -1.142812   -1.444293
H      1.497437   -4.272132   -1.036547
H      2.427998   -5.117686    0.221174
H      3.326869   -4.121172   -0.935219
H     -4.908493   -2.321345   -2.245562
H     -4.094363   -1.259286   -3.424729
H     -5.407644   -0.616722   -2.369836
H     -5.228153   -0.810076   -0.058004
H     -4.446170    0.824375   -0.394814
H     -3.710919   -0.393203    0.775550
H     -3.636595   -2.936696   -0.740168
H     -2.515516   -1.977548    0.252936
H     -2.024485   -2.497570   -1.429207
H      2.586927    5.379868    0.037110
H      1.391870    5.233956   -1.366036
H      0.903673    5.948949    0.183358
H      2.559104   -1.981022   -1.940969
H      2.135240   -0.321451   -1.494372
H      1.510264   -3.423533    1.405029
H      3.158007   -2.846791    1.135083
H     -1.377533    2.638761    0.892996
H     -1.654486    1.846392    2.512829
H      0.720577   -2.034307   -0.467526
H      0.298843    2.616444    3.292617
H     -0.739176   -0.143290    1.971163
H      1.083810    0.982267   -0.217524
H      2.372599    1.794666    1.725954
H     -0.528590    2.340117   -1.301895
