67

C      7.374376    0.446330   -0.767143
C     -3.777313    1.158102    1.524180
C     -3.505990   -1.231939    1.336680
C      3.717292   -0.050321    2.014515
C      2.602220    0.157196   -1.620408
C     -5.921523   -0.020028   -2.093103
C     -5.793158    1.604399   -0.479725
C     -2.382956   -1.803987   -0.936615
C     -0.962957    0.846409    1.165889
C      0.286687    1.250280    0.362259
C     -3.679538   -1.303446   -1.354027
C      2.024092   -2.005752    0.048724
C      4.640304    1.611821   -0.337797
C      3.453773   -1.676908    0.132725
C      3.197043    1.923939   -0.018822
C     -0.245693   -1.889790    0.059716
C      6.201436   -0.274774   -0.205970
C     -1.458234   -1.140860   -0.213990
C      1.000131   -1.146391    0.235651
C      4.904901    0.361163   -0.027910
C     -1.865379    0.232054    0.172835
C      1.363585    0.255799    0.558021
C     -4.050152    0.048403   -0.739402
C     -3.325134    0.103217    0.585518
C      3.714027   -0.250687    0.517104
C      2.618148    0.549648   -0.161335
N     -5.487315    0.164236   -0.661859
O      6.375529   -1.475902    0.114560
H      7.256675    1.541004   -0.719542
H      7.562893    0.163270   -1.814457
H      8.298255    0.162907   -0.192236
H     -4.731854    0.767533    1.997396
H     -3.843684    2.173585    1.162868
H     -3.068438    1.089377    2.423856
H     -3.979443   -1.016159    2.314118
H     -4.143210   -1.937741    0.780161
H     -2.503095   -1.632522    1.510306
H      3.392004    0.934863    2.342202
H      4.798933   -0.139930    2.328832
H      3.113530   -0.854829    2.463006
H      3.532590   -0.369531   -1.929799
H      1.755075   -0.481608   -1.895829
H      2.558260    1.068729   -2.284205
H     -5.376582    0.715258   -2.702923
H     -5.794609   -1.060946   -2.383333
H     -6.987301    0.287741   -2.080698
H     -6.681658    1.884434   -1.124755
H     -4.981328    2.243708   -0.868414
H     -6.114253    1.853090    0.531023
H     -2.110067   -2.815057   -1.225704
H     -0.667729    0.115759    1.935181
H     -1.406616    1.777222    1.578318
H      0.632448    2.220194    0.765592
H      0.032438    1.440399   -0.704874
H     -4.455883   -2.072666   -1.197197
H     -3.631445   -1.187245   -2.480531
H      1.786594   -3.046182   -0.187616
H      5.326811    2.330440   -0.756905
H      3.885756   -2.314088    0.959044
H      4.035810   -1.973589   -0.773532
H      2.799602    2.542935   -0.848835
H      3.073544    2.390465    0.954406
H     -0.155449   -2.663151   -0.765904
H     -0.349562   -2.549293    0.977433
H     -1.854746    0.900878   -0.736592
H      1.596038    0.248589    1.665195
H     -3.618507    0.819946   -1.395573
