50

C      5.707545    1.099571    0.364008
C      3.636460    1.611569    1.786664
C      4.064505    0.343481   -1.772858
C     -0.484408   -4.144974   -0.034494
C     -3.971328    0.666289    2.162656
C     -2.635760    0.337152    2.070007
C      1.953510    0.837908   -0.400013
C      1.370765   -0.528901   -0.615860
C     -4.084676    0.714433   -0.191264
C     -2.196514    0.261010   -1.666150
C     -0.559702   -2.030893   -0.760534
C      4.232579    1.153397    0.503915
C      3.460219    0.796808   -0.503880
C     -4.738327    0.865609    1.011198
C     -2.736913    0.382322   -0.287634
C     -2.013358    0.193835    0.849647
C     -0.695093    0.192022   -1.691408
C     -6.139838    1.211042    1.104393
C     -0.130124   -0.575373   -0.522745
Cl    -0.219503   -0.664219   -3.176223
N     -0.637863   -0.145283    0.734768
O     -6.667803    1.331893    2.225217
O     -6.885667    1.405005   -0.033594
O     -0.071026   -2.861194    0.228282
H      6.201971    0.906577    1.352367
H      6.043685    2.104046    0.007772
H      6.025049    0.296694   -0.317487
H      3.100343    0.765224    2.280933
H      2.935553    2.480948    1.620212
H      4.431245    1.972962    2.473255
H      3.313990    0.303491   -2.568154
H      4.512418   -0.671702   -1.668733
H      4.859780    1.059523   -2.098542
H     -0.106933   -4.500618   -1.028942
H     -1.581155   -4.219006   -0.042349
H     -0.074402   -4.866359    0.729682
H     -4.449509    0.776202    3.122933
H     -2.083360    0.192932    2.975239
H      1.719937    1.189320    0.612203
H      1.626426    1.585472   -1.134432
H      1.744260   -0.886691   -1.597103
H      1.832162   -1.234091    0.132182
H     -4.685842    0.870659   -1.093687
H     -2.689375   -0.589966   -2.162797
H     -2.497581    1.182051   -2.208954
H     -0.114853   -2.337815   -1.736960
H     -1.659914   -2.046890   -0.856514
H     -0.272593    1.213717   -1.687434
H     -0.040819   -0.071400    1.566198
H     -7.648161    2.072213   -0.057281
