51

C      5.626916    0.059904    0.602385
C      2.681137    0.337382   -1.446248
C     -3.078845    1.870515   -1.550702
C     -3.347778    1.560235    0.839859
C     -1.202419   -0.776424    1.674752
C      4.818098   -0.953078    0.743026
C      0.751435    1.743536    0.619274
C     -0.644044    1.880675    0.206582
C      2.657520   -1.968016    0.665421
C     -2.632983   -1.371849   -1.437555
C      2.774738    0.381868    0.070859
C      3.394080   -0.887438    0.498930
C      1.354540    0.396563    0.673267
C      1.203869   -1.971988    0.434237
C     -1.321090    0.682533   -0.366941
C     -3.458244   -0.362474   -0.724185
C     -1.501626   -1.764165   -0.548267
C      0.617358   -0.701405   -0.009987
C     -2.799096    0.910978   -0.382774
C     -0.879083   -0.624689    0.213752
O      0.608505   -3.046816    0.635517
O     -4.621126   -0.532701   -0.416736
O     -1.990071   -2.757542    0.323574
H      6.683981   -0.083060    0.808978
H      5.260791    1.013649    0.287305
H      3.639277    0.775126   -1.846969
H      2.674128   -0.712413   -1.811217
H      1.875245    0.957546   -1.841359
H     -4.182124    1.879057   -1.734418
H     -2.522350    1.554759   -2.451802
H     -2.757160    2.876307   -1.210174
H     -3.344395    2.682985    0.720381
H     -2.923994    1.243235    1.788777
H     -4.447709    1.304357    0.883665
H     -0.867136    0.107265    2.266076
H     -2.243954   -1.056079    1.834228
H     -0.582304   -1.625547    2.052347
H      5.220277   -1.938779    1.069174
H      1.402282    2.367154   -0.067834
H      0.924781    2.231799    1.626487
H     -1.262872    2.203952    1.097730
H     -0.772743    2.728119   -0.513435
H      3.127133   -2.891244    0.983173
H     -2.277748   -0.946962   -2.398328
H     -3.291766   -2.241941   -1.629817
H      3.311749    1.291341    0.327965
H      1.520075    0.061767    1.741334
H     -1.008838    0.624712   -1.454937
H     -0.750955   -2.298872   -1.202616
H      0.749452   -0.667164   -1.132187
H     -2.164912   -3.546673   -0.248704
