38

C      2.974990    0.500277    1.642977
C     -0.681543    2.760901   -0.428750
C      0.489735   -0.377006   -2.542147
C     -0.265677   -2.193459   -1.096951
C      0.485805   -0.068830    1.674268
C      0.440329    0.239202    0.358694
C      1.822937   -0.250817    3.672984
C     -2.301438    1.457940   -1.753710
C     -1.895107   -0.941459   -2.397108
C      1.733800    0.036700    2.401885
C     -1.286177    1.463947   -0.906475
C     -2.843399    0.177542   -2.179919
C     -0.773773    0.160495   -0.448040
C      0.712087   -0.692637    4.463507
C     -0.624741   -0.816924   -1.614948
O     -4.081958    0.070450   -2.346301
O     -0.455992   -0.874583    4.127147
O      0.972942   -0.965559    5.833921
H      3.230494   -0.291893    0.932049
H      2.696527    1.465611    1.179077
H      3.778899    0.586932    2.381196
H     -0.057884    3.223145   -1.202684
H     -0.021137    2.540246    0.435757
H     -1.478244    3.493105   -0.169930
H      0.222745    0.517087   -3.127233
H      1.428718   -0.190364   -1.970794
H      0.723111   -1.198269   -3.249564
H     -0.631989   -2.930405   -1.844823
H     -0.765485   -2.429743   -0.150838
H      0.837269   -2.297124   -1.050950
H     -0.462315   -0.377282    2.064629
H      1.372772    0.554453   -0.074514
H      2.809481   -0.144595    4.153189
H     -2.706019    2.410847   -2.108246
H     -2.445263   -1.874032   -2.155999
H     -1.634121   -1.040820   -3.491993
H     -1.595287   -0.289412    0.185897
H      0.274906   -1.413667    6.422650
