51

C      7.951042   -0.133313    1.095655
C      7.330732    0.329348   -0.209124
C      5.818384    0.396705    0.002286
C      5.130570    0.853337   -1.263970
C     -2.549526    0.370037   -0.241722
C     -1.034121    0.220238   -0.415512
C      3.649728    0.936831   -1.084816
C     -3.292428   -0.795739   -0.773073
C     -0.508422   -0.993847    0.304896
C      3.063453   -0.405386   -0.715702
C     -7.073145    0.585437   -0.779416
C     -6.667135    0.138135    0.560359
C     -4.761152   -0.787052   -0.697658
C      0.974089   -1.117191    0.127099
C     -5.467294   -0.717827    0.559906
C     -5.213309    1.080610    2.022629
N      1.624883   -0.250144   -0.566949
N     -6.295247    1.314296    1.357403
N     -4.766309   -0.258282    1.735130
O      1.652496   -2.169897    0.711939
O     -4.629582    2.017994    2.862890
S     -5.477715    0.620949   -1.649590
H      9.001951    0.138574    1.196732
H      7.401509    0.251680    1.971019
H      7.859231   -1.246812    1.136262
H      7.549021   -0.369652   -1.019517
H      7.739623    1.335413   -0.439155
H      5.605088    1.141614    0.794162
H      5.483771   -0.609629    0.327155
H      5.502692    1.854970   -1.539714
H      5.374418    0.125977   -2.071018
H     -2.688563    0.443130    0.850823
H     -2.799453    1.321288   -0.750354
H     -0.597656    1.145380    0.060144
H     -0.763504    0.241391   -1.475027
H      3.193418    1.310551   -2.037530
H      3.460235    1.694404   -0.284621
H     -3.022378   -0.875854   -1.871944
H     -2.944259   -1.771838   -0.359760
H     -0.946401   -1.903614   -0.129513
H     -0.713712   -0.966985    1.387558
H      3.302779   -1.128613   -1.505709
H      3.478669   -0.726284    0.266864
H     -7.559355    1.573977   -0.771074
H     -7.726699   -0.155027   -1.326950
H     -7.495562   -0.332034    1.137670
H     -5.112427   -1.687814   -1.302044
H     -5.830217   -1.773519    0.812727
H     -4.065086   -0.743369    2.324872
H      2.533131   -2.532920    0.318609
H     -4.680258    3.010375    2.717912
