38

C      2.604534    2.036833   -1.247225
C     -0.463402   -1.648027   -2.315872
C     -1.535205    1.455800    1.281514
C     -2.729841    0.680743   -0.699461
C      1.608852    0.232189    0.278591
C      0.447370    0.301294   -0.358443
C      3.916562    1.049032    0.480596
C     -2.147563   -2.250620   -0.680203
C     -2.735488   -0.720701    1.306892
C      2.737713    1.060788   -0.099115
C     -1.103077   -1.501682   -1.005413
C     -2.752838   -2.069462    0.638068
C     -0.664840   -0.542230    0.044153
C      4.227708    0.183039    1.592130
C     -1.889800    0.227548    0.476802
O     -3.290836   -3.044338    1.216926
O      5.409744    0.270419    2.063295
O      3.401092   -0.723168    2.201379
H      3.396872    2.807227   -1.192200
H      1.638204    2.580124   -1.123546
H      2.699623    1.507551   -2.194949
H      0.322077   -0.864728   -2.446341
H      0.020742   -2.653284   -2.455669
H     -1.183811   -1.567958   -3.170517
H     -1.662553    2.393167    0.699806
H     -0.534076    1.387653    1.753453
H     -2.267815    1.511246    2.122709
H     -3.484401    1.401399   -0.266465
H     -3.324021   -0.134497   -1.144411
H     -2.108465    1.217313   -1.462541
H      1.677261   -0.458048    1.079815
H      0.369787    1.000561   -1.175779
H      4.717055    1.737263    0.099898
H     -2.546117   -2.980729   -1.371866
H     -2.355355   -0.788451    2.329173
H     -3.772058   -0.283532    1.331762
H     -0.374275   -1.175450    0.924978
H      3.730642   -1.634284    2.488077
