38

C     -1.016481   -2.032034   -0.975979
C      1.045268    2.213091    0.643302
C     -3.444297   -1.613262   -0.876253
C      3.457187    1.833714    0.509893
C      0.274945   -1.581212   -0.787176
C     -0.250480    1.784250    0.465307
C     -4.453036   -0.833566   -0.619743
C      4.449168    1.042359    0.203193
C     -2.089377   -1.169887   -0.668958
C      2.103764    1.348892    0.334820
C      0.534674   -0.315547   -0.308472
C     -0.512006    0.527231   -0.008051
C     -4.266380    0.531793   -0.110104
C      4.310923   -0.313830   -0.312446
C     -1.836209    0.085386   -0.193532
C      1.873146    0.069867   -0.145543
C     -2.883515    0.998578    0.153780
C      2.944658   -0.872884   -0.460019
O     -5.069165    0.585686    1.070476
O      5.096497   -1.182689    0.480005
O     -2.796450    1.182291    1.569934
O      2.831897   -1.933135    0.482042
H     -1.261486   -3.016677   -1.349046
H      1.300663    3.194105    1.013472
H     -3.641968   -2.643424   -1.263919
H      3.635764    2.837921    0.889712
H      1.087685   -2.250509   -1.026925
H     -1.047104    2.446711    0.700830
H     -5.499462   -1.209759   -0.790702
H      5.472345    1.449641    0.352962
H     -4.830521    1.274341   -0.783191
H      4.800361   -0.346455   -1.344024
H     -2.814441    2.030041   -0.227189
H      2.852865   -1.298714   -1.491590
H     -5.965208    0.254530    0.868927
H      5.550733   -1.838384   -0.074638
H     -3.325464    0.490065    2.037724
H      3.380508   -1.728524    1.290170
