38

C      1.001260   -2.178716   -0.654992
C     -0.969303    2.256482   -0.073206
C      3.439991   -1.884213   -0.525501
C     -3.398063    1.923706    0.036294
C     -0.299168   -1.745546   -0.646473
C      0.329327    1.822637   -0.099303
C      4.425112   -1.030514   -0.375479
C     -4.400014    1.075852    0.100713
C      2.066510   -1.322303   -0.490057
C     -2.047340    1.405759   -0.236171
C     -0.523518   -0.400045   -0.465546
C      0.525754    0.478628   -0.296918
C      4.303553    0.414329   -0.178629
C     -4.255614   -0.380080   -0.070593
C      1.846966    0.012563   -0.308909
C     -1.855386    0.044921   -0.445469
C      2.946242    0.935947   -0.122125
C     -3.025997   -0.711401   -0.808238
O      5.026905    0.748992    1.001199
O     -4.379490   -1.050968    1.151669
O      2.772262    1.433902    1.215931
O     -2.958837   -2.000332   -1.261115
H      1.152242   -3.247499   -0.800534
H     -1.161977    3.296395    0.079158
H      3.535061   -2.936977   -0.669498
H     -3.487390    2.985455    0.168429
H     -1.120628   -2.396616   -0.754574
H      1.166276    2.484948    0.026867
H      5.445622   -1.472630   -0.404323
H     -5.387704    1.508851    0.294485
H      4.899122    0.929779   -1.013213
H     -5.124572   -0.754038   -0.700499
H      2.825074    1.893474   -0.714884
H     -3.279057   -0.196011   -1.855734
H      5.531307    1.583209    0.877393
H     -4.639884   -1.990547    1.010901
H      2.866763    0.683727    1.854498
H     -3.791409   -2.221118   -1.702973
