47

C      1.229344   -3.465060   -0.814356
C      4.950874    1.785948   -0.026353
C     -3.048103    0.700639    1.433591
C     -3.695338    0.209030   -0.844585
C      0.488859    0.800567    0.984881
C     -1.038895    2.181558   -1.342837
C     -0.709088   -2.625225    0.346659
C     -1.553129   -1.507124    0.841184
C     -2.137994    2.039292   -0.369025
C     -0.008142    1.145265   -1.385817
C      2.278231   -0.883879   -0.086941
C      0.375993   -2.322945   -0.314650
C      4.193030    0.525570    0.158037
C      0.882264   -0.971078   -0.642128
C     -1.429130   -0.374495   -0.155269
C     -2.494501    0.641734    0.018479
C     -0.020897    0.154268   -0.244936
O      4.750119   -0.405933    0.766554
O      2.904137    0.338012   -0.311678
H      0.647316   -4.397154   -0.904166
H      1.609377   -3.195098   -1.837072
H      2.043234   -3.605395   -0.102260
H      6.002385    1.496470   -0.251897
H      4.586410    2.353431   -0.906607
H      4.988379    2.405203    0.896235
H     -3.985925    0.109300    1.548974
H     -2.362517    0.360486    2.201939
H     -3.348517    1.754274    1.705493
H     -3.331615   -0.044174   -1.848081
H     -4.434912    1.045520   -0.842168
H     -4.191604   -0.652530   -0.336038
H     -0.261885    1.333565    1.595330
H      1.212254    1.609619    0.666534
H      1.030410    0.134723    1.687338
H     -1.459083    2.308569   -2.385220
H     -0.536716    3.176939   -1.149787
H     -0.994543   -3.664956    0.534744
H     -2.589955   -1.845892    0.833389
H     -1.164777   -1.245011    1.843065
H     -1.939638    2.679313    0.542618
H     -3.055833    2.531554   -0.812682
H      1.031346    1.582672   -1.438702
H     -0.079056    0.526196   -2.328215
H      2.875913   -1.651658   -0.666162
H      2.364727   -1.217322    0.964524
H      1.016873   -0.987180   -1.767208
H     -1.589682   -0.867605   -1.159799
