21

C      2.606348    0.655166    0.241477
C      2.545933   -0.644713    0.700408
C      1.482064    1.284265   -0.247193
C      1.333552   -1.295902    0.657200
C      0.232444    0.639904   -0.301546
C      0.191689   -0.646077    0.156975
C     -2.033409    0.120633   -0.128710
C     -1.092199    1.094152   -0.775393
C     -1.204931   -1.164679    0.026016
Cl    -2.592842    0.692141    1.443659
O     -1.359286    2.414102   -0.463617
O     -1.343687   -1.995174   -1.056886
H      3.553645    1.178456    0.270023
H      3.391462   -1.185539    1.092532
H      1.497407    2.299294   -0.612916
H      1.263785   -2.327665    1.016430
H     -2.885186   -0.133533   -0.811586
H     -1.134751    0.994529   -1.886736
H     -1.472556   -1.626991    0.997252
H     -1.380552    2.577687    0.508563
H     -1.598928   -2.930056   -0.825952
