24

C      3.162860   -0.282713   -0.009423
C     -0.704576   -1.164685    0.391041
C     -1.600937    0.067708    0.396200
C     -0.554458    1.150330    0.323481
C      0.300049    0.688825   -0.819050
C      0.284025   -0.807209   -0.694376
N     -1.418020   -2.372878    0.093167
O     -2.307341    0.182778    1.590078
O     -1.071749    2.417017    0.175606
O     -0.204765    1.027081   -2.064290
S      1.895423   -1.516389   -0.336407
H      3.964401   -0.770623    0.600483
H      2.802545    0.568941    0.590187
H      3.667917    0.087688   -0.920915
H     -0.196225   -1.178728    1.378676
H     -2.308425    0.075228   -0.445114
H      0.052728    1.074434    1.251481
H      1.305523    1.113975   -0.683624
H     -0.086710   -1.292741   -1.632179
H     -1.707899   -2.917884    0.922182
H     -2.179164   -2.201643   -0.586270
H     -2.124210    1.037236    2.056736
H     -0.414819    3.071437    0.545933
H     -0.556171    1.942814   -2.123605
