36

C     -2.868150    2.595545   -2.296407
C     -4.424778    1.893577   -0.521072
C     -2.608999    3.456299   -0.044045
C      0.277987    0.380830   -0.596428
C     -0.641223    1.446991   -0.789530
C      1.049562   -0.494344   -0.424659
C     -2.053374    1.061067   -0.538284
C      3.451495   -1.034468    0.128616
C      3.100851   -3.641349    2.812211
C      4.426315   -4.916864    1.688983
C      2.040828   -1.650961   -0.217137
C      2.596796   -1.816451    1.127134
C      3.231764   -3.052403    1.571975
C     -2.998492    2.221998   -0.828717
N      3.823071   -4.755997    2.862381
N      4.069028   -3.869795    0.877271
H     -2.349315    1.763639   -2.823109
H     -3.882385    2.693873   -2.743477
H     -2.279577    3.522111   -2.416439
H     -4.941964    1.443096   -1.394005
H     -4.525574    1.191369    0.340373
H     -5.017314    2.822220   -0.295577
H     -1.852205    4.059535   -0.601612
H     -3.515522    4.105528   -0.004764
H     -2.306599    3.232413    0.999839
H     -0.346865    2.366214   -0.194964
H     -0.532888    1.831102   -1.853015
H     -2.285484    0.692959    0.468097
H     -2.349569    0.251008   -1.259335
H      3.446037    0.073121    0.287960
H      4.272598   -1.510250   -0.396656
H      2.494644   -3.255763    3.642966
H      5.071142   -5.726318    1.415015
H      1.969524   -2.427169   -0.936524
H      2.089312   -1.252026    1.942120
H      4.369325   -3.700335   -0.084671
