30

C     -3.349605   -1.874415    0.208247
C     -3.247690    0.559540   -0.406252
C      1.454163   -1.236548    0.041198
C      3.218659    0.841584    0.009109
C      0.009321    2.757478   -0.177918
C     -2.654223   -0.572076    0.408918
C      0.989056    0.057574   -0.029686
C     -0.905337    1.588230   -0.157317
C     -2.357760    1.735739   -0.210993
C      2.813213   -1.535969    0.098330
C      3.677165   -0.462837    0.080223
C      1.874379    1.126350   -0.046909
C     -0.436485    0.353644   -0.088856
O     -2.814309    2.902355   -0.084258
O      3.217495   -2.863357    0.168665
O      5.033860   -0.703707    0.134753
O      1.350518    2.381925   -0.118045
O     -1.310084   -0.724485   -0.070843
H     -4.082661   -2.082481    1.018420
H     -2.600758   -2.695471    0.263482
H     -3.813656   -1.945952   -0.792915
H     -3.180380    0.273739   -1.495084
H     -4.283283    0.769684   -0.148583
H      0.775476   -2.073404    0.055158
H      3.933148    1.655159   -0.002683
H     -0.204535    3.355022    0.750309
H     -0.169377    3.409129   -1.057388
H     -2.589588   -0.290150    1.466176
H      4.175713   -3.123961    0.211081
H      5.477566   -1.582339    0.187036
