59

C      6.480370    3.014489   -2.482775
C      5.791698   -1.564063   -0.996371
C      5.734849    2.050134   -1.654473
C      5.136485    1.259207   -0.969102
C     -3.437734   -0.022652    2.948396
C     -4.843457    1.842127   -1.004593
C      4.396746    0.312127   -0.118595
C     -4.373738    0.244049    1.977444
C     -5.001062    0.474077   -0.382854
C     -2.146922   -0.345887    2.634031
C     -4.988251    2.949810    0.000135
C      1.361859   -2.480961    0.798289
C      2.218774   -1.630457    0.266587
C     -0.536836   -2.129932   -1.202485
C      4.373824   -1.046396   -0.791291
C     -4.024830    0.190025    0.658450
C     -0.041513   -2.144037    1.073206
C     -1.776929   -0.405492    1.310058
C      3.641632   -2.074278    0.023649
C     -0.841020   -2.959798    0.018165
C     -0.747298   -0.720218   -0.752188
C     -4.819581    4.250648   -0.687105
C     -0.449880   -0.733953    0.714056
C     -2.702741   -0.141169    0.333929
O      4.268956   -2.368677    1.227625
O     -2.176292   -3.002549    0.334391
O     -4.594104    4.299947   -1.919912
O     -4.901342    5.469517   -0.009023
O     -2.051017   -0.276407   -0.870162
H      6.882256    3.770371   -1.776483
H      7.317823    2.485131   -3.002493
H      5.846968    3.508384   -3.228962
H      6.057051   -2.123182   -0.072903
H      6.497892   -0.732815   -1.203187
H      5.732088   -2.269317   -1.856496
H     -3.762353    0.032705    3.995873
H     -3.915187    1.928827   -1.606058
H     -5.679088    1.962875   -1.734832
H      3.380222    0.723589   -0.010883
H      4.861892    0.259763    0.878136
H     -5.407289    0.500794    2.291349
H     -6.022946    0.355471   -0.001464
H     -4.901782   -0.257618   -1.228530
H     -1.403210   -0.557943    3.415308
H     -6.024415    2.918902    0.397063
H     -4.220320    2.908955    0.798185
H      1.684426   -3.514179    1.063554
H      1.886846   -0.648596    0.014768
H      0.548481   -2.267472   -1.415370
H     -1.166634   -2.409937   -2.070849
H      3.896694   -0.966051   -1.778110
H     -0.401079   -2.468882    2.065752
H      3.644664   -3.016103   -0.588880
H     -0.382346   -3.967965   -0.071890
H     -0.023158   -0.020384   -1.279239
H      0.296437    0.035994    0.938442
H      3.889796   -1.714591    1.898291
H     -2.760074   -3.061811   -0.462351
H     -5.304298    6.295855   -0.427917
