29

C     -2.814104    0.787694    0.818369
C     -1.952618   -0.424908    1.099674
C     -2.325280    1.211879   -0.551517
C      2.771596    1.839226   -0.442078
C      3.643672    0.958473    0.147600
C      1.516828    1.287626   -0.296674
C      2.925804   -0.098952    0.636203
C      0.190075    1.763787   -0.724512
C      0.499581   -0.728721    0.680173
C     -0.045583   -2.399208   -0.744680
C     -0.797418   -0.365502    0.105246
Br     5.529863    1.207635    0.245772
Br     3.678309   -1.593634    1.546499
N      0.828413   -2.049485    0.139927
N     -1.034148   -1.389799   -0.900636
N     -0.917591    0.954424   -0.422656
N      1.610896    0.132421    0.346354
O      0.129254    2.861412   -1.331579
O      0.006293   -3.605339   -1.429737
H     -2.553391    1.602665    1.526024
H     -3.891957    0.549469    0.822078
H     -1.578328   -0.421991    2.144714
H     -2.584980   -1.318032    0.916158
H     -2.791608    0.527391   -1.289107
H     -2.553256    2.276219   -0.758858
H      2.977611    2.788776   -0.935302
H      0.455361   -0.840686    1.784895
H     -1.792846   -1.386582   -1.610533
H      0.869550   -4.126258   -1.521820
