57

C     -5.073890   -0.170872   -0.449246
C     -4.163424   -0.130027   -1.682565
C     -1.725477    2.460621   -0.445042
C     -1.880618    3.371255   -1.470289
C      5.548119    1.374157   -0.689500
C      6.261982   -0.716611    0.191392
C      6.777764    1.507823   -1.282727
C      7.464394   -0.533140   -0.418501
C      0.744934   -1.526737   -0.573532
C      1.324137   -0.399017    1.627743
C     -0.660920   -0.976279   -0.510711
C     -0.185155   -0.652790    1.761667
C      3.974146    0.087504    0.699981
C     -5.126075   -1.773016    1.232234
C     -3.387642   -2.181980    2.785757
C      5.283773    0.248421    0.057909
C     -4.313351   -0.767901    0.679121
C     -4.624722   -2.468222    2.297627
C     -3.300423    1.064220   -1.491581
C     -2.447627    1.265116   -0.436503
C     -2.744280    3.148298   -2.521828
C      2.991591   -0.604884   -0.160340
C     -3.461659    1.970479   -2.521882
C     -3.075587   -0.497971    1.185222
C     -2.081512    0.486095    0.772606
Br    -5.654242   -3.851051    3.115600
Cl    -2.941491    4.306646   -3.825993
Cl    -4.572491    1.643052   -3.838610
N     -2.638341   -1.213148    2.230776
N      1.678418   -0.848862    0.290663
N     -0.768273   -0.075526    0.574127
N      7.709827    0.562296   -1.140837
O      3.336242   -0.975669   -1.300219
O      8.928288    0.732788   -1.750156
H     -5.938771   -0.772801   -0.736961
H     -5.374125    0.889769   -0.216341
H     -4.758031   -0.054009   -2.604061
H     -3.523675   -1.043201   -1.643782
H     -1.039297    2.653921    0.376253
H     -1.326731    4.300300   -1.487487
H      4.774184    2.135602   -0.793864
H      6.051238   -1.595942    0.777020
H      6.986458    2.394030   -1.871324
H      8.220049   -1.299799   -0.303452
H      0.779325   -2.604046   -0.286059
H      1.136357   -1.470228   -1.609925
H      1.438660    0.705105    1.640241
H      1.887195   -0.900116    2.414325
H     -0.957976   -0.506891   -1.484116
H     -1.345960   -1.859017   -0.391402
H     -0.583902   -0.125051    2.653779
H     -0.305986   -1.744738    1.830489
H      4.121214   -0.578403    1.598398
H      3.581880    1.055617    1.060638
H     -6.106746   -1.991705    0.836566
H     -2.970048   -2.717397    3.626360
H     -1.941724    1.263931    1.585428
