29

C      3.494715   -0.154691   -0.719194
C     -0.321607    2.307252    0.655279
C     -2.925016   -2.364364   -0.443902
C     -1.330192    2.946219    1.351713
C     -1.930965   -3.016813   -1.142369
C      1.083118    0.033876   -0.911994
C      2.180641   -0.263544    0.039974
C     -0.804033    1.066507    0.283218
C     -2.417351   -1.128738   -0.078792
C     -0.285243   -0.003194   -0.415529
C     -2.924582   -0.057327    0.616847
C     -1.128384   -1.094543   -0.579660
C     -2.110604    1.034472    0.791770
Br    -4.704035   -0.136407    1.295179
N      2.254086    0.594731    1.196485
O     -0.883442   -2.214091   -1.192830
O     -2.381702    2.166396    1.417501
H      3.793924    0.908674   -0.694540
H      4.260224   -0.828194   -0.286009
H      3.287081   -0.421231   -1.775027
H      0.659462    2.674278    0.419613
H     -3.926025   -2.714724   -0.204126
H     -1.196383    3.940024    1.751677
H     -2.038466   -4.004182   -1.553360
H      1.223108   -0.591428   -1.829722
H      1.260466    1.088098   -1.284322
H      2.178797   -1.301943    0.429826
H      2.853803    1.419238    0.911955
H      2.778605    0.115649    1.950340
