23

C     -1.787114    0.033076    0.342738
C     -1.275213   -1.254851    0.953969
C      0.004308   -0.543443   -1.321804
C     -0.006874    1.693258   -0.229359
C      2.010330    0.079806   -0.092855
C     -0.841053    0.553750   -0.717360
C      0.960094   -1.020944   -0.235937
C      1.295846    1.310444    0.312901
C      0.213626   -1.122848    1.036539
O      1.825983    2.027299    1.134752
O      0.784735   -1.100534    2.109986
H     -1.849156    0.820845    1.123577
H     -2.814615   -0.130884   -0.043948
H     -1.531351   -2.111802    0.321130
H     -1.681618   -1.351973    1.992554
H      0.592994   -0.085742   -2.134627
H     -0.625919   -1.367636   -1.659841
H      0.122652    2.446937   -1.037825
H     -0.582067    2.194936    0.593959
H      2.746583   -0.255317    0.655803
H      2.513052    0.226096   -1.064322
H     -1.477883    0.946631   -1.561375
H      1.402661   -1.987104   -0.478656
