56

C      4.978903    1.082903    1.443320
C      4.913491    0.090016   -2.043641
C     -3.860037    0.478390   -0.563525
C     -0.588218    1.409458   -1.027995
C      0.703821   -1.475069   -2.490370
C      5.149886    0.894539    0.215584
C     -1.458861    1.876966    1.941894
C      3.171191   -0.603108   -0.572336
C      1.990296    0.307929   -0.321919
C     -1.870706   -1.276223   -0.931027
C     -2.781896    1.634317    1.313494
C     -0.269786    1.187491    1.399757
C     -0.779188   -2.343441   -0.777869
C     -3.751292   -0.635978    1.590255
C      4.458411    0.158203   -0.747091
C     -1.704638   -0.420278    0.313577
C      0.719632   -0.452506   -0.138866
C     -2.942602    0.297268    0.663704
C     -0.480826    0.432214    0.109437
C      0.542135   -1.615843   -1.030040
O     -4.974500    0.009194    1.891725
O      1.480581   -2.615524   -0.621623
H      5.148223    1.436855    2.347606
H      4.010863    0.320082    1.718887
H      5.866201    0.688375   -2.185769
H      4.458651   -0.425830   -2.803554
H     -4.659445   -0.270196   -0.615198
H     -4.338111    1.486361   -0.573716
H     -3.286919    0.435881   -1.508172
H     -0.525381    0.914653   -2.004237
H     -1.541007    1.999350   -1.033423
H      0.201301    2.167926   -0.918269
H      1.372713   -2.251420   -2.971005
H      1.110185   -0.530104   -2.890799
H     -0.269995   -1.595475   -3.059429
H      6.097591    1.449921   -0.173054
H     -1.282322    2.972281    1.930170
H     -1.523049    1.644027    3.050862
H      3.332905   -1.287954    0.297663
H      2.949675   -1.150290   -1.507754
H      2.190445    0.830507    0.634408
H      1.938699    1.138513   -1.044238
H     -1.674166   -0.736548   -1.850527
H     -2.853560   -1.775851   -0.998083
H     -3.560013    1.700564    2.142264
H     -3.093207    2.477517    0.638702
H      0.093103    0.429257    2.133161
H      0.596317    1.912071    1.310254
H     -0.845669   -2.723259    0.263283
H     -0.863450   -3.128538   -1.549745
H     -3.139606   -0.813699    2.481944
H     -4.011986   -1.572143    1.104632
H     -1.436651   -1.124027    1.140929
H      0.876560   -0.934765    0.898027
H     -5.137130    0.753983    1.239209
H      1.152442   -2.858946    0.279888
