24

C     -1.865092   -0.927650   -1.058329
C     -3.257645   -0.005355    0.688693
C      3.630850   -0.410516    0.183342
C     -0.909890    0.491074    0.829300
C     -1.984229    0.235749   -0.151204
C      2.660846    0.477019   -0.607316
C      1.296309    0.012808   -0.238150
O      2.902316    1.775666   -0.198565
O      0.990961   -1.152818   -0.569666
O      0.367936    0.732809    0.417027
H     -1.594712   -1.866137   -0.536563
H     -1.264688   -0.694104   -1.949395
H     -2.920826   -1.115999   -1.459851
H     -4.152141    0.006467    0.064758
H     -3.261414    0.770668    1.497408
H     -3.105665   -0.986629    1.167342
H      3.954761    0.102342    1.123019
H      3.138747   -1.348178    0.514521
H      4.535861   -0.645913   -0.402601
H     -1.235428    1.429523    1.391653
H     -1.001705   -0.294853    1.626312
H     -2.196436    1.145347   -0.769451
H      2.862344    0.348365   -1.677798
H      2.408940    1.920315    0.649593
