56

C     -6.443504    1.046674   -1.014432
C     -1.233366   -2.229804    2.444217
C     -1.698756   -2.929991    1.208649
C      6.359369    0.415429    0.111820
C      5.065320    0.771040    0.430794
C     -0.880670   -0.785520    2.242063
C     -2.462068    2.172500   -0.085073
C     -3.757650    1.808123   -0.387180
C     -1.070747   -2.502664   -0.060620
C      0.238596   -0.820194   -1.316718
C      6.740623    0.365213   -1.209041
C      1.679762   -0.579652   -0.959887
C     -0.110319    1.651152    0.310226
C     -3.081367   -0.433144   -0.543694
C      4.568412    1.014571   -1.850934
C      2.729675    1.468812   -0.180012
C      4.115879    1.085914   -0.549059
C     -1.484235    1.213458   -0.016496
C     -4.106244    0.491601   -0.625945
C      0.082083   -0.722694    1.110010
C     -1.797567   -0.119806   -0.250472
C      0.748849    0.607926    0.922210
C     -0.668670   -1.073511   -0.151104
N      5.838093    0.665374   -2.158254
N      1.895228    0.355918    0.073465
O     -5.401039    0.092434   -0.932439
Br     0.761863    0.000000    0.000000
H     -7.325507    0.651096   -1.554530
H     -6.693161    1.484665   -0.035339
H     -6.085862    1.912522   -1.645608
H     -1.979651   -2.382355    3.252762
H     -0.299460   -2.741872    2.805921
H     -2.819316   -2.851457    1.189918
H     -1.497944   -4.019295    1.350818
H      7.107452    0.168757    0.853221
H      4.759752    0.812250    1.468807
H     -0.483803   -0.395871    3.186675
H     -1.841551   -0.249912    2.013404
H     -2.248507    3.238420    0.094788
H     -4.563518    2.553350   -0.449457
H     -0.144033   -3.113442   -0.264861
H     -1.751932   -2.737562   -0.903383
H     -0.095993    0.019806   -1.959383
H      0.213988   -1.732697   -1.968989
H      7.758590    0.085432   -1.461338
H      2.179853   -0.234605   -1.887187
H      2.122457   -1.592699   -0.756691
H     -0.195282    2.496628    1.034635
H      0.302495    2.106916   -0.620703
H     -3.329595   -1.466421   -0.725823
H      3.878036    1.250459   -2.668710
H      2.818369    2.044280    0.784724
H      2.316012    2.215241   -0.903769
H      0.882863   -1.474271    1.279305
H      1.149563    0.923476    1.928698
H     -0.761863    0.000000    0.000000
