47

C     -4.944278    0.238141   -1.624117
C      7.556728    0.357792    0.812003
C      3.380609   -0.215441    1.277188
C      3.026567    0.684712   -0.874143
C     -3.568898   -2.856285    0.423264
C      4.739075   -0.037731    1.144147
C      4.369847    0.864774   -1.015870
C     -3.374164   -1.537372    0.758853
C     -3.609216    1.916992   -0.528287
C     -3.337270    1.214775    0.825871
C     -1.455492   -2.935505   -0.648694
C      2.509430    0.140659    0.276884
C     -2.640210   -3.593156   -0.277992
C      5.250977    0.516276   -0.031106
C     -2.210773   -0.896540    0.390646
C     -1.249127   -1.624310   -0.321445
C      0.359546    1.239059    0.514664
C      1.068170   -0.076719    0.481223
C     -0.951789    1.237800    1.140964
Cl    -2.912100   -5.270225   -0.693513
N     -3.763780    1.032620   -1.623894
N     -2.126593    0.465945    0.774119
O      0.406010    1.852499   -0.752509
O     -1.151184    2.002038    2.154254
O      6.612240    0.697979   -0.171799
S      0.375226   -1.093668   -0.877346
H     -5.366779    0.032738   -0.606161
H     -5.747819    0.874669   -2.104441
H     -4.902777   -0.696357   -2.178328
H      8.549509    0.251857    0.322807
H      7.287416   -0.613361    1.239574
H      7.615351    1.172992    1.564341
H      2.972853   -0.646210    2.190499
H      2.369382    0.974205   -1.676929
H     -4.505559   -3.298024    0.742982
H      5.398486   -0.327746    1.949880
H      4.747861    1.300447   -1.944381
H     -4.093040   -0.976923    1.325643
H     -2.728671    2.579884   -0.769997
H     -4.469983    2.589790   -0.441069
H     -3.267141    2.087392    1.532034
H     -4.220944    0.621057    0.974353
H     -0.751726   -3.543552   -1.196029
H      1.015742    1.915132    1.147269
H      0.867715   -0.585326    1.434203
H     -2.903923    0.544447   -1.901317
H     -0.225504    1.417779   -1.379934
