69

C      7.249682   -0.627764   -2.002950
C     -1.932664   -3.369938    2.659152
C     -0.568496   -3.638305    0.681612
C      6.939194    0.803417   -1.605325
C     -4.658620    3.878107    0.431189
C     -3.596546   -2.005046   -2.587818
C     -4.488183   -0.994957   -2.841782
C     -3.189375    3.837627    0.348794
C     -5.308512    2.540366    0.631862
C     -2.607024   -1.839427   -1.623881
C     -4.376749    0.168838   -2.127019
C      2.588383   -0.348966    0.893001
C      3.394450    0.374931    1.731391
C     -2.621833    2.693435   -0.515093
C     -4.256662    1.482417    0.800424
C     -1.557004   -1.373407    1.302957
C      4.194468   -0.229859   -0.833311
C      2.055169   -1.455258   -1.195835
C     -1.721235   -2.815077    1.194689
C      2.986220   -0.651643   -0.389535
C     -2.465120   -0.678384   -0.881519
C      4.609897    0.806251    1.295512
C     -1.359118   -0.505019    0.067417
C     -3.379541    0.347449   -1.149586
C      5.042107    0.513698    0.005926
C      0.778673   -0.633422   -1.238728
C      5.463711    1.577945    2.172744
N     -0.101013   -0.821452   -0.436491
N     -3.373193    1.512017   -0.357989
O      0.753784    0.308496   -2.249003
O      5.030646    1.841922    3.325537
O      6.728644    2.043248    1.810645
O      6.263249    0.937039   -0.424422
H      8.361281   -0.811604   -1.894127
H      6.793436   -1.358883   -1.304902
H      6.910319   -0.888540   -3.003890
H     -2.881914   -2.904310    2.990043
H     -1.930976   -4.449712    2.564515
H     -1.081258   -2.984943    3.250777
H      0.047005   -4.070192    1.491733
H      0.007419   -3.138459   -0.091466
H     -1.031584   -4.535935    0.148463
H      6.388878    1.239710   -2.488592
H      7.936562    1.333888   -1.479740
H     -5.124039    4.436146   -0.425158
H     -4.945409    4.491656    1.352146
H     -3.649655   -2.911007   -3.109124
H     -5.282467   -1.061485   -3.579083
H     -2.853400    4.773469   -0.182875
H     -2.679916    3.869121    1.334174
H     -5.949551    2.360453   -0.268126
H     -5.988120    2.558814    1.541847
H     -1.898584   -2.644432   -1.473517
H     -5.065597    1.002999   -2.293803
H      1.612129   -0.687623    1.264395
H      3.057400    0.604712    2.744507
H     -2.579849    3.017807   -1.583331
H     -1.554206    2.655063   -0.147341
H     -3.712918    1.693714    1.757359
H     -4.702141    0.471180    0.953080
H     -2.350149   -0.861939    1.920676
H     -0.620269   -1.170482    1.936408
H      4.518936   -0.464352   -1.843847
H      2.479551   -1.541149   -2.208912
H      1.914929   -2.462054   -0.800769
H     -2.648486   -3.151989    0.688978
H     -1.310892    0.520617    0.491741
H      0.017174    0.956859   -2.403848
H      7.278971    2.433604    2.570068
