67

C      9.014945   -0.232388   -1.637184
C     -6.139514    1.356482    2.327686
C    -10.183431   -0.222040   -0.700374
C      3.960019   -0.961780   -1.432418
C      2.496706   -1.273303   -1.338303
C      4.482332   -0.393806   -0.156863
C      1.678524   -0.034019   -1.056789
C      5.989771   -0.088124   -0.267401
C      0.183928   -0.398900   -0.983560
C      6.413032    0.459558    1.056223
C     -0.560306    0.866468   -0.717442
C      7.829029    0.851571    1.127577
C     -2.053458    0.692736   -0.612876
C      8.812753   -0.230074    0.937005
C     -2.483367   -0.220681    0.480481
C     -4.553682   -1.184175    1.502617
C     -6.020742   -1.427402    1.231699
C      8.863204   -0.938922   -0.332446
C     -5.939060    1.042194    0.884627
C     -8.706876   -0.295009   -0.744988
C     -4.008470   -0.292986    0.439650
C     -6.549616   -0.258743    0.436937
N     -4.530635    1.033623    0.485888
O      8.783087   -2.163254   -0.366898
O     -8.044979   -0.449128   -1.819956
O     -7.961356   -0.195570    0.419582
H      8.092852   -0.397142   -2.221504
H      9.838177   -0.773450   -2.174522
H      9.268319    0.823348   -1.452775
H     -5.160835    1.730814    2.745414
H     -6.582513    0.562089    2.938444
H     -6.826563    2.246021    2.443349
H    -10.555821   -1.254623   -0.510076
H    -10.565307    0.119788   -1.689546
H    -10.479894    0.501709    0.070044
H      4.052972   -0.192080   -2.251398
H      4.486898   -1.888424   -1.746623
H      2.314454   -2.047757   -0.535967
H      2.109240   -1.748678   -2.263799
H      3.971444    0.508349    0.172931
H      4.394248   -1.161479    0.637394
H      1.991356    0.427790   -0.087598
H      1.833250    0.657365   -1.914767
H      6.169461    0.686715   -1.034209
H      6.463214   -1.015977   -0.590333
H     -0.046282   -0.853926   -1.958357
H      0.082618   -1.170017   -0.220108
H      5.809023    1.385756    1.319708
H      6.114623   -0.254953    1.875576
H     -0.140694    1.426851    0.135893
H     -0.391822    1.534026   -1.613001
H      8.062381    1.391330    2.116131
H      8.066895    1.663162    0.360995
H     -2.449814    1.716117   -0.377821
H     -2.462762    0.413537   -1.592609
H      9.840531    0.208809    1.184489
H      8.656630   -1.014858    1.754598
H     -2.020567   -1.210164    0.465401
H     -2.233142    0.234999    1.477515
H     -4.437043   -0.763741    2.527392
H     -4.019321   -2.155943    1.510211
H     -6.594090   -1.593430    2.166045
H     -6.095392   -2.327951    0.589404
H     -6.429195    1.844270    0.262483
H     -4.226906   -0.807056   -0.541688
H     -6.231707   -0.395993   -0.639226
H     -4.440755    1.424484   -0.499962
