41

C     -5.153379    0.416265   -0.076241
C      6.673049   -0.517937    0.088209
C      5.920998   -1.429124   -0.640305
C      6.072795    0.589740    0.606958
C      4.579083   -1.229318   -0.845568
C      4.738481    0.778771    0.397076
C     -2.136019    0.688738   -1.173122
C     -3.272476   -0.910269    0.921300
C      0.612783    1.560276   -0.133700
C      3.961442   -0.102150   -0.319347
C     -1.736592    0.950365    0.207951
C     -0.290818    0.500379    0.441486
C     -2.461221    0.271756    1.298411
C     -3.171333   -0.315176   -1.393857
C      2.526175    0.127482   -0.529340
C     -0.249994    0.444838    1.915713
C     -4.111938   -0.652737   -0.290403
O     -3.311116   -0.903834   -2.452022
O      1.865149   -0.695546   -1.183013
O      0.704306    0.790731    2.689767
O     -4.814609   -1.843416   -0.581139
O      1.964839    1.265386    0.017032
O     -1.487881   -0.070701    2.281381
H     -4.914010    1.102201    0.750908
H     -5.322728    1.043539   -0.976450
H     -6.152129   -0.038765    0.186338
H      7.730331   -0.653857    0.262814
H      6.431836   -2.294889   -1.035665
H      6.641623    1.298324    1.169604
H      3.980753   -1.933177   -1.412547
H      4.225966    1.663585    0.803456
H     -2.487859    1.650737   -1.649706
H     -1.231737    0.408823   -1.790587
H     -2.622641   -1.777762    0.704166
H     -3.953763   -1.164055    1.761587
H      0.385982    1.599729   -1.233364
H      0.359570    2.543627    0.265847
H     -1.723377    2.057852    0.432042
H     -0.150522   -0.476101   -0.019852
H     -3.147592    0.993882    1.832400
H     -5.471430   -1.574101   -1.298218
