41

C     -5.511336   -0.004456   -0.123681
C      6.843114   -0.311755    0.846733
C      6.207484   -1.142481   -0.034170
C      6.105601    0.710626    1.420041
C      4.874558   -0.990709   -0.360287
C      4.767821    0.861663    1.091701
C     -2.046987    1.232226   -0.716741
C     -3.353415   -0.196197    1.148541
C      0.649292   -0.350742   -1.266644
C      4.133369    0.023821    0.205473
C     -1.693200   -0.214325   -0.665136
C     -0.284086   -0.444738   -0.110364
C     -2.594373   -1.052245    0.176302
C     -3.518648    1.359062   -0.705913
C      2.732313    0.243210   -0.089297
C     -0.435365   -1.836318    0.401505
C     -4.281180    0.712549    0.380327
O     -4.071263    1.983486   -1.577003
O      2.138958    1.192459    0.473671
O      0.456165   -2.722202    0.447129
O     -4.749222    1.754278    1.214410
O      1.993328   -0.534162   -0.962106
O     -1.749328   -1.976995    0.821665
H     -5.287361   -1.037853   -0.384827
H     -6.278061    0.006616    0.700648
H     -5.897161    0.501677   -1.034521
H      7.878418   -0.396297    1.126810
H      6.770191   -1.944469   -0.489201
H      6.588206    1.375031    2.115919
H      4.367199   -1.645727   -1.056952
H      4.260875    1.692800    1.588883
H     -1.602428    1.757152    0.172259
H     -1.588273    1.671166   -1.632975
H     -2.617031    0.450272    1.670994
H     -3.969461   -0.789708    1.837626
H      0.441708    0.617293   -1.789643
H      0.358863   -1.140304   -2.001095
H     -1.715943   -0.606396   -1.708013
H     -0.068541    0.231373    0.718526
H     -3.328749   -1.598968   -0.484892
H     -4.926049    2.560290    0.650901
