39

C      3.036713    1.530111   -1.064100
C     -0.291420   -2.622762   -0.913021
C     -1.376080    2.063480    0.529122
C      1.570343    0.055594    0.389310
C      0.521202    0.325901   -0.385604
C      3.912758    0.362108    0.873733
C     -2.125276   -1.391187   -1.845858
C     -2.468905    1.053842   -1.402466
C      2.871537    0.605260    0.138722
C     -1.127108   -1.398750   -0.979228
C     -2.989929   -0.213196   -1.962256
C      3.881229   -0.488301    2.026203
C     -2.987042    0.249020    0.883267
C     -1.890222    0.769243   -0.039154
C     -0.792572   -0.270206   -0.076336
F     -3.519715   -0.935297    0.443740
F     -3.991342    1.208927    0.922214
O     -4.120265   -0.270638   -2.510082
O      5.002558   -0.632147    2.656236
O      2.843529   -1.185480    2.580251
O     -0.748096   -0.822182    1.225586
H      2.590606    2.505603   -0.866429
H      2.573379    1.036934   -1.946347
H      4.102899    1.625656   -1.281022
H     -0.204893   -3.017752   -1.953634
H      0.713897   -2.433824   -0.484464
H     -0.875573   -3.367409   -0.316099
H     -2.260043    2.678818    0.807459
H     -0.736032    2.622670   -0.170760
H     -0.847444    1.865035    1.504374
H      1.388737   -0.597126    1.212976
H      0.669908    0.977780   -1.220532
H      4.892733    0.851466    0.581894
H     -2.344599   -2.238140   -2.495794
H     -3.239879    1.817927   -1.303327
H     -1.627936    1.387980   -2.043929
H     -2.629385    0.132968    1.915360
H      2.940845   -2.133580    2.972898
H     -0.319118   -1.708345    1.117723
