38

C      3.595047   -1.579712   -0.039185
C      3.984688   -0.235037    2.023495
C     -4.237517   -0.933751    1.928609
C     -3.536855    0.961097   -1.592112
C     -0.548791    1.347875   -2.465668
C     -3.655068    1.549856   -2.765812
C     -1.240495    1.861822   -3.469314
C     -1.558952   -0.555597    1.088083
C      1.077863   -0.760866    1.321412
C     -0.237602   -0.393363    0.718166
C     -2.329561    0.544602   -0.891769
C     -0.989321    0.694443   -1.239966
C     -2.602064   -0.095496    0.299234
C      2.004240    0.218065    0.668962
C      0.052507    0.241279   -0.463811
C      3.436017   -0.239056    0.614592
O      4.154742    0.685278   -0.140559
O     -3.906131   -0.291835    0.730681
O     -2.613946    1.917919   -3.628456
O      1.448162    0.298000   -0.643883
H      4.701404   -1.783770   -0.091879
H      3.257286   -1.572109   -1.092987
H      3.129576   -2.409709    0.495087
H      4.311498    0.795471    2.318694
H      3.175091   -0.552088    2.721229
H      4.802880   -0.972335    2.160275
H     -3.605656   -0.511707    2.764620
H     -3.999023   -2.017870    1.917036
H     -5.290073   -0.758929    2.217020
H     -4.473499    0.769900   -1.098421
H      0.543553    1.405546   -2.533980
H     -4.625520    1.803071   -3.164318
H     -0.642602    2.289864   -4.260286
H     -1.744419   -1.062736    2.030036
H      1.269523   -1.809662    1.070377
H      1.007857   -0.577140    2.413535
H      1.887552    1.186124    1.189734
H      3.997610    0.542556   -1.108474
