32

C     -0.883052   -1.302050   -0.249621
C     -2.380734   -1.359662   -0.306032
C     -1.661453    0.877883   -0.610277
C     -4.060511    0.467355   -0.026566
C      3.339750   -1.984543    0.097439
C      1.094637    1.769352   -0.764181
C     -0.544521   -0.074457   -1.056573
C      2.910904    0.638037   -0.207093
C      4.157307    0.190125    0.151091
C      1.842608   -0.232644   -0.421950
C     -2.863389   -0.028589   -0.807053
F     -3.117400   -0.057451   -2.162537
N      5.247124    1.062548    0.371436
N      4.347030   -1.125674    0.297239
N      2.121963   -1.552771   -0.252086
N      2.398131    1.866597   -0.431140
N      0.744167    0.467656   -0.760051
O     -3.753764    0.619258    1.323496
H     -0.403635   -2.217054   -0.653545
H     -0.560622   -1.092882    0.797447
H     -2.668429   -2.201004   -0.956019
H     -2.768494   -1.544511    0.730581
H     -1.686638    1.770104   -1.236028
H     -1.482551    1.081763    0.468224
H     -4.863653   -0.295693   -0.079317
H     -4.458303    1.380791   -0.482405
H      3.511193   -3.037956    0.219549
H      0.493583    2.641065   -0.985065
H     -0.716047   -0.227572   -2.147457
H      5.726240    1.177834    1.278652
H      5.581649    1.622504   -0.443530
H     -4.643090    0.701642    1.788866
