40

C      1.195708    2.995499   -0.339295
C      3.716604   -2.514889    0.884105
C     -2.626227   -2.221816    0.076836
C     -2.815292   -0.177602    1.399204
C     -1.009144    1.947439   -0.122292
C     -2.101971    1.359289   -0.959406
C      1.438648   -1.579702    0.731564
C      2.374484    0.736993   -0.496010
C      0.359899    1.803898   -0.744491
C      2.783142   -1.425955    0.484421
C      1.029564    0.573497   -0.244108
C      3.234994   -0.274990   -0.123776
C      0.544432   -0.571350    0.365410
C     -2.111649   -0.122264   -1.013845
C     -2.040811   -0.818846    0.305596
O      4.576433   -0.111061   -0.375411
O     -3.267559   -0.539916   -1.671485
O     -0.712406   -1.028501    0.746048
H      1.827624    2.714123    0.519464
H      1.762220    3.434146   -1.187051
H      0.516627    3.810051    0.008854
H      4.421241   -2.051684    1.631390
H      4.310463   -2.840986    0.027761
H      3.193994   -3.312598    1.426780
H     -2.468917   -2.541666   -0.978277
H     -3.740029   -2.136079    0.196513
H     -2.211944   -2.948015    0.776270
H     -2.157660    0.026747    2.296019
H     -3.238581    0.812761    1.135874
H     -3.608581   -0.848426    1.793348
H     -0.982375    1.596454    0.914818
H     -1.207413    3.055680   -0.068645
H     -1.936901    1.729272   -2.006489
H     -3.060898    1.811430   -0.639597
H      1.042209   -2.476482    1.211159
H      2.711981    1.645368   -0.974039
H      0.313405    1.788755   -1.850848
H     -1.230335   -0.449128   -1.633115
H      5.230603   -0.827300   -0.117800
H     -4.055581   -0.022144   -1.385454
