66

C     -5.527870    0.502872    1.332944
C     -6.308167    0.145781    0.059449
C     -3.513799   -1.370403   -2.025248
C     -4.117895   -2.568598   -2.248474
C      4.582334   -1.565979    1.584238
C      4.911045   -0.629870   -0.637949
C      5.927914   -1.125470    2.132556
C      6.298825   -1.135486   -0.316173
C     -0.219614   -1.086188   -0.690612
C      0.208378    0.912487   -2.096882
C     -1.514470   -0.445692   -0.211682
C     -1.065514    1.493164   -1.462949
C      2.601396   -0.914425    0.287740
C     -4.624838    2.577577    1.996551
C     -2.941265    3.767037    0.870915
C      4.025351   -0.578419    0.585183
C     -4.538980    1.579972    1.017007
C     -3.825300    3.701141    1.948786
C     -5.406550   -0.691715   -0.764910
C     -4.168906   -0.390573   -1.259539
C     -5.369462   -2.859659   -1.742143
C      2.031925    0.040791   -0.690553
C     -6.022736   -1.927626   -0.998706
C     -3.660513    1.690257   -0.014582
C     -3.359089    0.836992   -1.134963
C      7.835445    0.177928    1.179608
Br    -3.909312    5.082878    3.260786
Br    -7.742763   -2.269797   -0.277565
Cl    -6.086397   -4.440697   -2.077275
N      8.966444   -0.261031    1.632547
N     -2.889057    2.801480   -0.037254
N      0.695997   -0.056863   -1.140730
N     -1.979201    0.425023   -1.222327
N      6.713939   -0.673985    1.004287
O      2.756328    0.961314   -1.130832
O      7.705299    1.518092    0.853125
H     -6.259691    0.862098    2.055923
H     -5.030290   -0.386709    1.747706
H     -7.212880   -0.390759    0.361737
H     -6.503927    1.093082   -0.478326
H     -2.543912   -1.099694   -2.400498
H     -3.576135   -3.305892   -2.849358
H      3.905401   -1.688557    2.474604
H      4.728328   -2.572001    1.142353
H      5.028178    0.370009   -1.104024
H      4.488190   -1.328216   -1.394395
H      6.399805   -2.027027    2.564708
H      5.841131   -0.293899    2.846440
H      6.373556   -2.230238   -0.362401
H      7.005033   -0.714435   -1.059868
H      0.252403   -1.617488    0.157260
H     -0.436025   -1.823241   -1.497222
H      0.930357    1.745068   -2.252436
H     -0.035643    0.393625   -3.046357
H     -2.193495   -1.272107    0.037819
H     -1.209397    0.130156    0.713977
H     -1.465496    2.291471   -2.104835
H     -0.741187    1.904271   -0.483523
H      2.024492   -0.787051    1.228957
H      2.548086   -1.966998   -0.062679
H     -5.317627    2.504853    2.822814
H     -2.318475    4.653989    0.843753
H      4.114951    0.431395    1.052389
H     -3.545818    1.397801   -2.106676
H      9.786779    0.368745    1.759392
H      8.494389    2.135441    0.710885
