30

C      2.977098    1.269315    0.091145
C      2.264406    0.017226   -0.323058
C     -1.841200    1.844870   -0.116331
C      1.096451   -0.316152    0.566205
C     -0.950548    0.641990   -0.231087
C      0.483491   -1.589334    0.030864
C     -1.799768   -0.587600    0.004285
C     -0.954902   -1.750241    0.424539
N      0.146898    0.748348    0.694022
O     -1.121991    2.990041   -0.402572
O      1.221871   -2.651373    0.508696
O     -2.822689   -0.352951    0.919892
O     -1.420617   -2.929222   -0.157216
H      3.921045    1.316668   -0.522023
H      3.313878    1.160564    1.139530
H      2.390119    2.178455   -0.074261
H      2.995272   -0.829056   -0.219951
H      1.932017    0.048817   -1.371235
H     -2.260429    1.911571    0.893527
H     -2.684377    1.736850   -0.859028
H      1.521086   -0.496537    1.593527
H     -0.528779    0.608915   -1.253628
H      0.525359   -1.562106   -1.080525
H     -2.281719   -0.830756   -0.971429
H     -1.000754   -1.889403    1.519203
H     -0.241949    0.838785    1.659785
H     -1.737725    3.783255   -0.451240
H      1.361287   -2.555112    1.483376
H     -2.486393   -0.034038    1.789794
H     -2.016439   -2.721789   -0.902106
