43

C      2.654982    1.566957    0.645460
C      2.735483    0.209372   -1.441568
C     -0.965071    3.841633    0.223704
C     -1.555517   -2.530738   -1.306781
C     -2.108624    1.193199    0.848614
C     -2.453261   -0.146230    0.177582
C      1.246805   -1.832037   -0.350593
C      0.319150   -2.765515    0.334668
C      2.427310    0.209195    0.049907
C     -0.487510    2.533184   -0.270393
C      1.174373   -0.477407    0.396630
C     -0.600503    1.348844    0.587051
C     -1.191890   -0.872251    0.538647
C     -0.132001    0.076818   -0.009819
C     -1.100168   -2.257995    0.092085
O     -0.015919    2.490188   -1.378747
O     -1.912516   -3.038746    0.935232
H      3.758678    1.755559    0.839144
H      2.188755    1.722723    1.612338
H      2.395020    2.349083   -0.096034
H      2.692169   -0.803310   -1.831024
H      3.817530    0.528258   -1.510203
H      2.169643    0.947949   -2.003942
H     -1.331407    3.802619    1.266598
H     -0.115293    4.582398    0.227671
H     -1.806657    4.251792   -0.384354
H     -2.659689   -2.406657   -1.341682
H     -1.387193   -3.631009   -1.495058
H     -1.028791   -1.952685   -2.073176
H     -2.339703    1.046732    1.915240
H     -2.707851    2.009328    0.459926
H     -3.363540   -0.585359    0.589904
H     -2.513570    0.064846   -0.916537
H      0.897026   -1.662154   -1.387428
H      2.294205   -2.183889   -0.397926
H      0.494760   -2.687039    1.440407
H      0.403935   -3.803458    0.003583
H      3.261310   -0.437803    0.468119
H      1.163131   -0.735305    1.463587
H     -0.181075    1.556929    1.596723
H     -1.098076   -0.830071    1.649574
H     -0.220406    0.163565   -1.120884
H     -2.818030   -2.611515    0.953753
