61

C     -5.376891    1.359500   -1.084710
C     -5.624061   -0.398919   -2.719367
C      6.834676    0.418281   -1.213058
C     -3.385945   -4.287689    1.845681
C     -2.290674   -5.062766    1.472360
C      3.116677    5.221708   -0.172271
C      2.504182    4.252133    0.637948
C     -3.376600   -2.920112    1.619108
C     -1.183957   -4.496762    0.876249
C      2.726167   -0.398741   -0.424011
C      3.311592   -1.212140    1.708717
C      4.061822   -0.130546   -0.688317
C      4.637589   -0.945976    1.446679
C      3.146762    5.051330   -1.537967
C     -3.887300   -0.494989   -1.060569
C     -3.724670   -0.499341    0.488947
C      1.982151    2.996287   -1.290643
C      2.309271   -0.942946    0.771365
C      1.932647    3.131292    0.076641
C      5.036011   -0.401547    0.245995
C     -2.264476   -2.360118    1.019718
C     -1.174767   -3.166264    0.655705
C      0.073880   -0.028028    1.179490
C      0.877755   -1.233872    1.073036
C     -1.353050   -0.010388    0.962272
C      1.297185    2.120765    0.914105
N      2.582685    3.951763   -2.052681
N     -5.217002   -0.024192   -1.398185
N     -2.415307   -0.957295    0.836668
O     -1.789326    1.169879    0.851689
O      1.252393    2.230956    2.174494
O      6.388378   -0.139727    0.002996
O      0.710045    0.990071    0.384154
S      0.338729   -2.515399   -0.085178
H     -4.397998    1.864272   -1.312524
H     -6.195542    1.822001   -1.671700
H     -5.600928    1.563110   -0.013048
H     -4.823099   -0.825712   -3.336676
H     -5.996064    0.515678   -3.254358
H     -6.478080   -1.105553   -2.736081
H      6.841501   -0.399458   -1.965447
H      6.168452    1.214006   -1.604394
H      7.871144    0.798814   -1.145409
H     -4.254483   -4.735715    2.312744
H     -2.295706   -6.125314    1.648904
H      3.560552    6.098850    0.305339
H      2.465736    4.356888    1.709146
H     -4.191365   -2.288380    1.910854
H     -0.320875   -5.079144    0.577659
H      1.960737   -0.182047   -1.179594
H      2.993154   -1.638555    2.648847
H      4.350123    0.299450   -1.640728
H      5.414448   -1.154593    2.175554
H      3.625432    5.810685   -2.158617
H     -3.821063   -1.535478   -1.446032
H     -3.170231    0.198723   -1.504540
H     -4.592159   -1.059115    0.798234
H     -3.782971    0.588337    0.769914
H      1.531117    2.112757   -1.730051
H      0.209337    0.372369    2.242429
H      0.872261   -1.753086    2.082519
