68

C     -2.901289    3.346721    1.283276
C     -2.443013   -2.842564    0.452167
C     -2.287876   -2.919632    1.821597
C     -1.994535   -1.736113   -0.227482
C     -1.684001   -1.876529    2.466367
C      1.953582    0.789492   -2.630289
C      3.576252   -1.142098    0.093166
C      0.937451    1.362076   -1.641353
C      4.883068   -0.866951   -0.195835
C      1.102210   -0.800038   -0.539303
C      2.600587   -0.629055   -0.667511
C     -1.382145   -0.669458    0.396045
C     -1.234655   -0.764152    1.773551
C      2.987139    0.164085   -1.720099
C     -0.916383    0.498329   -0.371168
C     -1.276631    1.792904    0.260970
Cl    -0.472542    0.546894    2.606155
N      0.468404    0.444837   -0.708772
O     -0.383380    2.660165    0.433480
O     -2.556481    2.113543    0.680902
S      4.714149    0.200615   -1.657668
C      0.129290   -1.140476   -1.466352
C     -1.232994    0.912967   -1.331014
C     -2.144579    0.061788    1.181168
C     -0.914636    0.859800    1.515568
C     -0.666860   -1.845324    1.077013
C      1.285195    1.239147    0.459427
C     -1.630843   -0.986176    0.275989
C      0.597686   -1.061672    1.158441
C     -0.593764   -0.170120   -0.553579
C      0.225105    0.272906    0.620321
O      1.635298   -1.492772    1.578016
O      2.456366    0.653236   -2.094994
O      3.622280   -0.100403    0.139604
O      3.542828    2.221158   -0.424164
S      2.704690    0.937112   -0.467591
H     -2.439865    4.220009    0.749360
H     -2.569479    3.400385    2.345698
H     -4.006283    3.491287    1.187620
H     -2.930928   -3.693034   -0.039105
H     -2.646922   -3.804915    2.361875
H     -2.141895   -1.723403   -1.317807
H     -1.565414   -1.943993    3.539934
H      2.390550    1.581375   -3.235758
H      1.458616   -0.020153   -3.168552
H      3.376098   -1.802789    0.978243
H      1.378496    2.248968   -1.106273
H      0.112010    1.777650   -2.254369
H      5.809975   -1.156367    0.258072
H      0.827492   -1.218648    0.449713
H      0.737566   -1.515225   -1.304534
H     -1.479929    0.485781   -1.352311
H      1.111502   -1.436239   -1.121307
H     -0.564983   -2.016933   -1.587426
H      0.194593   -0.701608   -2.475494
H     -0.554244    1.791865   -1.360107
H     -2.208896    1.252407   -0.992988
H     -1.331810    0.577555   -2.390157
H     -2.483829   -0.425571    2.128577
H     -2.981069    0.664486    0.799838
H     -0.626211    0.821539    2.567397
H     -1.040802    1.894403    1.117898
H     -1.035909   -1.962045    2.119302
H     -0.523999   -2.841442    0.621630
H      0.842843    2.215313    0.082969
H      1.637216    1.545544    1.502442
H     -2.320601   -1.521355   -0.343925
H      2.871136   -0.219091   -2.336501
