87

C    -10.147042   -0.836252    0.098064
C     -8.055600    0.050766   -1.438351
C      6.375999   -1.788008    0.589502
C     -3.103045   -1.003609    1.416989
C     -3.504463   -1.659354   -0.951329
C      3.419695   -0.836653    1.125082
C      2.807290    0.847533   -2.185752
C      6.630432    1.029598    1.755979
C      8.418781    0.303398    0.449582
C     -8.805856   -0.716785    0.724112
C      0.269536   -0.758055   -1.410877
C     -0.872619   -1.117046   -0.486262
C      2.106419    1.935519    0.235052
C      4.680078   -1.273274   -1.789937
C     -3.856083    1.769707    0.639256
C      3.496943    1.478629    0.419244
C      3.170387   -1.505550   -1.689209
C     -2.495264    2.264358    0.308651
C     -0.211189    1.914330   -0.283574
C     -7.785122   -0.288480   -0.009613
C      6.267450   -0.473122   -0.141181
C      1.073421    1.237063   -0.181417
C      4.970660   -0.167302   -0.762324
C      1.368802   -0.197528   -0.512285
C     -1.836620    0.042885   -0.463777
C     -4.182765    0.560275   -0.228889
C     -6.430315   -0.137510    0.516525
C     -3.169789   -0.526399    0.007321
C      3.742603    0.046303   -0.004871
C      2.712923   -0.207811   -1.126257
C     -1.401558    1.218751    0.321804
N     -5.520846    0.260827   -0.203424
N      6.976874    0.597694    0.475330
O     -6.238569   -0.462752    1.844309
O     -1.105947    0.933846    1.649252
H    -10.112420   -1.467398   -0.820547
H    -10.555159    0.150136   -0.201818
H    -10.852344   -1.331988    0.795601
H     -8.856627    0.820220   -1.428270
H     -7.168257    0.531565   -1.874663
H     -8.318170   -0.833780   -2.041259
H      5.529839   -2.476886    0.391694
H      6.557221   -1.643923    1.695940
H      7.286750   -2.388833    0.282916
H     -3.876088   -1.816402    1.558436
H     -2.154606   -1.501648    1.695590
H     -3.227891   -0.183324    2.146443
H     -4.582272   -1.669429   -1.211556
H     -2.959967   -1.564481   -1.913126
H     -3.299099   -2.624977   -0.430147
H      2.683624   -0.305430    1.805314
H      4.241253   -1.078494    1.829092
H      2.980118   -1.823319    0.846147
H      1.805787    1.189255   -2.441905
H      3.266432    0.455397   -3.127338
H      3.409893    1.718548   -1.892052
H      7.539447    1.304880    2.367910
H      6.065796    2.005196    1.664082
H      6.036025    0.387382    2.396919
H      8.920763    1.152939   -0.017977
H      8.601801   -0.670724   -0.070009
H      8.797892    0.158896    1.486991
H     -8.619711   -0.959603    1.741440
H      0.674925   -1.703132   -1.826636
H     -0.028471   -0.055299   -2.187470
H     -1.362631   -2.054613   -0.746443
H     -0.505250   -1.250016    0.574023
H      1.919899    2.981852    0.475595
H      4.932655   -0.954586   -2.822336
H      5.241018   -2.189564   -1.598155
H     -4.578907    2.566688    0.295583
H     -4.042376    1.627333    1.699196
H      4.235555    2.170461   -0.069544
H      3.710036    1.607020    1.522273
H      2.767234   -1.569900   -2.742703
H      2.922494   -2.397453   -1.106249
H     -2.237185    3.143621    0.931941
H     -2.523032    2.654289   -0.749778
H     -0.198868    2.957642    0.116290
H     -0.449411    2.034391   -1.380839
H      6.925447   -0.657949   -1.069452
H      5.142144    0.761097   -1.390822
H      1.285554   -0.776731    0.427060
H     -1.988443    0.359353   -1.513947
H     -3.929350    0.934547   -1.282687
H     -5.593940    0.008998    2.455879
H     -1.224727    1.732186    2.209257
