64

C     -8.469879    2.171966    1.321439
C     -8.729309    0.790931    0.782173
C      4.502390    0.779875    0.858234
C      3.593367   -0.755343   -0.744994
C      3.200221    1.227642    1.061249
C      2.297458   -0.280998   -0.513910
C     -1.297755    0.159706   -1.900876
C     -2.441005   -0.275675   -2.481323
C      8.080322   -0.727422    1.067907
C      7.353584    1.399380    0.084925
C      9.414959   -0.564479    0.316146
C      8.744937    1.467102   -0.589895
C     -4.858257   -0.361111    0.296368
C     -6.360108   -2.223766    0.797100
C     -2.459781    0.290677    0.234419
C     -5.610517   -1.821336   -1.569829
C     -5.243332   -1.801031   -0.100593
C      4.673728   -0.242068   -0.079973
C      2.133254    0.712739    0.394814
C     -3.561366   -0.149813   -0.426519
C     -1.267743    0.458745   -0.517029
C     -3.603434   -0.445647   -1.776360
C     -7.508444   -1.320065    0.591692
C      6.047025   -0.679452   -0.349951
C      0.763766    1.287376    0.629904
N      6.280810   -1.667186   -1.170138
N     -0.179202    0.898583    0.093820
N      7.124694   -0.008765    0.261716
O     -8.546419   -1.730045   -0.030482
O      0.710373    2.349463    1.563878
O      9.661692    0.790219    0.196138
O     -7.562789   -0.005289    1.031537
O     -4.806925   -0.893290   -2.329155
Cl     0.685396    0.000000    0.000000
H     -7.408771    2.424670    1.069822
H     -9.114292    2.873852    0.721215
H     -8.665807    2.250520    2.407685
H     -8.830000    0.855439   -0.319975
H     -9.615783    0.308979    1.264349
H      5.330510    1.194224    1.405044
H      3.715206   -1.543846   -1.470580
H      3.047499    2.021960    1.788481
H      1.471674   -0.705361   -1.043028
H     -0.385649    0.295652   -2.445557
H     -2.492245   -0.516013   -3.559690
H      7.793857   -1.798876    1.095226
H      8.256233   -0.280571    2.052869
H      6.643327    1.900188   -0.583744
H      7.485953    1.939471    1.067021
H     10.230501   -1.053595    0.852715
H      9.196175   -1.034222   -0.688018
H      8.625513    1.047555   -1.600738
H      9.050161    2.518994   -0.684265
H     -4.759269   -0.308380    1.372977
H     -5.566618    0.362763   -0.140079
H     -5.989615   -2.248571    1.827765
H     -6.663284   -3.248671    0.473047
H     -2.452502    0.516272    1.309079
H     -5.302166   -2.828511   -1.968171
H     -6.678377   -1.715229   -1.766433
H     -4.330191   -2.402057    0.084467
H      5.544708   -2.168618   -1.646122
H     -0.213061    2.510360    1.967721
H     -0.685396    0.000000    0.000000
