64

C      9.566106    2.359763   -0.423191
C      8.113634    2.594902   -0.796130
C     -4.679120    0.293612   -0.634972
C     -4.158698   -0.268642    1.611042
C     -3.410834   -0.070660   -1.022903
C     -2.882875   -0.628839    1.177349
C      1.335364   -3.171459    0.247540
C      2.663705   -3.547293    0.197184
C     -7.393630    2.334070   -0.401755
C     -8.448096    0.114134   -0.380301
C     -8.398695    2.402831   -1.545459
C     -8.309159    0.095387   -1.884732
C      4.462214   -0.310584    0.219863
C      6.552263    0.024184    1.596367
C      2.024335   -0.913420    0.280259
C      6.082450   -2.104272    0.329208
C      5.527284   -0.940160    1.125473
C     -5.075922    0.204002    0.675130
C     -2.479048   -0.538534   -0.141901
C      3.347796   -1.288976    0.228878
C      0.989032   -1.826891    0.295124
C      3.683661   -2.621814    0.185163
C      7.337700    0.666633    0.535212
C     -6.434300    0.581592    1.094803
C     -1.105532   -0.927717   -0.499927
N     -6.746827    0.529444    2.328306
N     -0.343162   -1.390218    0.379274
N     -7.405506    0.992386    0.121790
O      8.101912   -0.073441   -0.174391
O     -0.700620   -0.768102   -1.804147
O     -8.311561    1.351333   -2.422476
O      7.321692    2.013682    0.235353
O      5.039145   -3.032952    0.133567
Cl     0.684982    0.000000    0.000000
H     -6.172009    0.249634    3.125760
H      9.677914    2.723658    0.632611
H      9.892523    1.332804   -0.546940
H     10.222117    3.033342   -1.044342
H      7.894771    3.660175   -0.919135
H      7.880284    2.009958   -1.730661
H     -5.409759    0.659009   -1.363142
H     -4.422812   -0.357176    2.652238
H     -3.139099    0.013950   -2.069955
H     -2.169772   -0.994494    1.907858
H      0.515739   -3.883922    0.256044
H      2.927858   -4.603060    0.159839
H     -7.673266    3.096640    0.376224
H     -6.422576    2.670751   -0.791027
H     -9.463634    0.511251   -0.145265
H     -8.358300   -0.902588    0.003160
H     -9.429267    2.558173   -1.160034
H     -8.119381    3.325997   -2.124590
H     -7.360044   -0.400535   -2.206449
H     -9.160920   -0.482767   -2.317547
H      4.156569    0.693103    0.552117
H      4.896489   -0.314831   -0.814543
H      7.234022   -0.534567    2.299601
H      6.033674    0.758166    2.252906
H      1.769980    0.142423    0.310933
H      6.891483   -2.570132    0.895825
H      6.442258   -1.788761   -0.673549
H      4.971688   -1.376435    1.981434
H      0.028762   -1.363746   -2.203572
H     -0.684982    0.000000    0.000000
