68

C     -1.031044   -3.717294    1.101894
C     -3.173270    1.415477    1.284675
C     -3.727496    2.259554    0.340660
C     -2.203916    0.533948    0.886081
C     -3.356375    2.259855   -0.981615
C      1.976977    1.963696   -0.763847
C      3.969009   -0.960227    0.407057
C      0.677728    1.457180   -0.209772
C      5.170609   -0.377925    0.305804
C      1.439305   -0.812196    0.143993
C      2.870635   -0.262934    0.074508
C     -1.809554    0.506105   -0.419731
C     -2.363644    1.341153   -1.340556
C      3.040590    1.032213   -0.357848
C     -0.711752   -0.435167   -0.856264
C     -1.104170   -1.750939   -0.319822
Cl    -1.857853    1.276509   -3.035419
N      0.487193    0.085530   -0.281459
O     -2.111002   -2.287679   -0.904625
O     -0.541624   -2.450327    0.695218
S      4.781490    1.301659   -0.305781
C     -0.985579    1.189304    1.575725
C     -1.556439    1.222992   -0.872465
C     -1.362093   -1.494236   -0.939355
C     -0.050045   -0.817890   -1.377606
C     -0.909568   -1.500393    1.472097
C      1.404624    0.794320   -0.100661
C     -1.755140   -0.875325    0.366024
C      0.447847   -1.277254    0.925386
C     -1.007667    0.468032    0.280730
C      0.348248   -0.195086   -0.043606
O      1.433790   -1.880975    1.231728
O      3.999319    1.615479   -0.681892
O      3.598135   -0.808760    0.034386
O      2.817796   -0.093187   -2.183471
S      2.947328    0.279226   -0.721155
H     -2.089607   -3.855634    0.773969
H     -1.038494   -3.838696    2.200491
H     -0.465548   -4.545378    0.618366
H     -3.518600    1.465535    2.334303
H     -4.484409    2.952274    0.645351
H     -1.754037   -0.146817    1.626887
H     -3.781544    2.916056   -1.744564
H      1.977721    2.013473   -1.881984
H      2.177715    2.946920   -0.297360
H      3.928780   -2.039288    0.777820
H      0.601916    1.812167    0.857656
H     -0.124535    2.004431   -0.733459
H      6.216226   -0.711696    0.510168
H      1.373741   -1.759019   -0.449975
H      1.251530   -1.115047    1.204695
H     -0.692693   -0.477473   -1.944803
H     -0.113768    0.939103    2.218508
H     -0.997696    2.293724    1.351577
H     -1.942933    0.990803    2.107522
H     -2.198601    0.567382   -1.529258
H     -0.840744    1.780708   -1.472513
H     -2.283203    1.980884   -0.463970
H     -1.080596   -2.560646   -0.742663
H     -2.120784   -1.462156   -1.717657
H     -0.278619   -0.061737   -2.143379
H      0.703103   -1.550535   -1.681350
H     -1.066947   -0.893673    2.409168
H     -1.158443   -2.543888    1.660781
H      1.556777    1.240956    0.903839
H      1.057899    1.658354   -0.739289
H     -2.794567   -0.785265    0.580109
H      4.188565    1.779739    0.292709
