86

C     -0.618481   -5.199924   -0.925916
C      0.073187   -3.453457   -2.544325
C      2.190551    1.115246    3.403711
C     -8.107788    3.169662    1.639265
C     -8.084958    1.860808    1.205930
C     -6.892747    3.815851    1.880407
C     -3.992124    1.369147   -0.395818
C     -6.865337    1.254299    1.031989
C     -5.679321    3.199524    1.703123
C     -4.399509    1.136345    1.047705
C     -2.735297    0.664307   -0.761366
C      4.844645    0.702643   -1.215012
C      4.862015   -0.415694    0.857812
C      6.117821    1.149521   -0.975410
C      6.154129    0.043433    1.092029
C     -1.671335   -3.012229   -0.784295
C      2.843450   -0.625607   -0.517101
C     -0.362664   -3.703524   -1.132229
C     -5.663739    1.893605    1.270680
C      4.188674   -0.091651   -0.299614
C      6.810868    0.845974    0.163101
C     -2.861416   -0.830051   -0.594757
C     -1.545224   -1.512579   -0.949876
C      1.699469    0.264555   -0.230469
C     -0.403670   -0.967472   -0.176924
C     -3.934738   -1.394579   -1.438003
C      1.533927    0.787706    1.109472
C      8.794702    2.281584   -0.303294
N      8.171391    3.360117   -0.602116
N     10.135545    2.127628   -0.743236
N      2.331761    0.610470    2.074949
N      8.115363    1.296803    0.452185
N      0.507599   -0.344534   -0.779057
N     -4.371589   -0.982360   -2.542160
O     -0.305859   -1.124192    1.207312
O     -4.547846   -2.561208   -0.932755
O      0.377904    1.563669    1.348345
O     -4.039973    0.058973   -3.312988
C     -0.981551   -0.082030    0.021940
C      0.442416    0.292210   -0.061134
O      0.811970    1.484843    0.166946
O      1.450264   -0.604524   -0.384633
H      0.253778   -5.790192   -1.209298
H     -0.857681   -5.314136    0.163099
H     -1.531231   -5.451478   -1.515595
H      0.438304   -4.411940   -3.018575
H      0.907881   -2.716637   -2.586596
H     -0.737404   -3.081147   -3.203298
H      3.200454    1.160029    3.895382
H      1.587314    0.435287    4.069924
H      1.797907    2.151860    3.435743
H     -9.056685    3.671830    1.784274
H     -9.011446    1.307699    1.001880
H     -6.951894    4.836493    2.216749
H     -3.776664    2.476970   -0.460110
H     -4.857585    1.208407   -1.046983
H     -6.838369    0.222351    0.690566
H     -4.731740    3.689289    1.886801
H     -3.577846    1.532020    1.696503
H     -4.615043    0.076947    1.259452
H     -1.900782    1.013927   -0.113256
H     -2.490705    0.868534   -1.814989
H      4.330821    0.964365   -2.125659
H      4.406754   -1.061366    1.624189
H      6.654106    1.775780   -1.702706
H      6.616232   -0.248942    2.016804
H     -2.446890   -3.383598   -1.484189
H     -1.920241   -3.264841    0.248635
H      2.780671   -0.889020   -1.616213
H      2.783047   -1.610180   -0.005293
H      0.382965   -3.396536   -0.392186
H     -3.055857   -1.036261    0.473405
H     -1.394500   -1.328565   -2.032233
H      1.858871    1.183162   -0.899922
H      7.202221    3.618638   -0.357251
H     10.895616    1.814534   -0.069968
H     10.335457    2.333877   -1.744747
H      8.644999    0.884764    1.271824
H      0.543014   -1.465477    1.645697
H     -5.410682   -2.917832   -1.353002
H      0.142720    1.738859    2.316649
H     -3.269273    0.049715   -3.980851
H     -1.587075    0.823825    0.155462
H     -1.211988   -0.746765    0.885158
H     -1.265757   -0.650584   -0.883363
H      2.341721   -0.516975    0.099624
