61

C     -6.138541   -0.599103    2.431486
C     -5.793717   -2.508274    1.011688
C      6.409585    1.909670   -3.458200
C     -1.304669   -4.361700    2.613700
C      0.049246   -4.460676    2.842163
C      1.851982    4.877849    1.533342
C      1.405012    3.699123    0.931282
C     -1.805760   -3.342082    1.830935
C      0.853702   -3.524686    2.271329
C      3.150255    0.563730   -1.164563
C      2.597512   -0.999386   -2.822967
C      4.222859    0.994550   -1.938120
C      3.661926   -0.572601   -3.591665
C      1.929596    6.027118    0.800082
C     -3.967758   -0.999859    1.485363
C     -3.179285   -1.653439    0.381119
C      1.137458    4.881594   -1.104729
C      2.311548   -0.445344   -1.590878
C      1.045696    3.704034   -0.397891
C      4.500055    0.434839   -3.167218
C     -0.984867   -2.391164    1.251076
C      0.365005   -2.503222    1.488659
C      0.060506    0.049884   -0.795989
C      1.162248   -0.924186   -0.798276
C     -1.185709   -0.310576   -0.155029
C      0.585711    2.459051   -0.989746
N      1.575702    6.016022   -0.495150
N     -5.367600   -1.203402    1.404083
N     -1.765332   -1.442324    0.485938
O     -2.009461    0.680182   -0.169059
O      0.234706    2.377776   -2.205426
O      5.581231    0.870577   -3.944665
O      0.504981    1.285958   -0.253891
S      1.642495   -1.419223    0.876629
H     -7.192918   -0.479482    2.045820
H     -6.132911   -1.148790    3.392855
H     -5.763866    0.430912    2.596448
H     -5.880322   -2.576477   -0.092587
H     -6.854429   -2.623380    1.385075
H     -5.234887   -3.338017    1.465778
H      6.967430    1.608765   -2.542555
H      7.081729    2.257178   -4.267483
H      5.765054    2.767197   -3.164393
H     -1.950307   -5.101664    3.063864
H      0.443545   -5.276719    3.467768
H      2.139519    4.902184    2.571672
H      1.342580    2.794027    1.504274
H     -2.847079   -3.305415    1.689053
H      1.915323   -3.577412    2.432828
H      2.947416    1.012543   -0.196872
H      1.930274   -1.805353   -3.166966
H      4.872058    1.792746   -1.581716
H      3.871548   -1.026991   -4.568951
H      2.276255    6.966431    1.245021
H     -3.622594   -1.236799    2.509012
H     -3.823657    0.126664    1.425893
H     -3.503242   -1.018496   -0.524889
H     -3.521888   -2.623802    0.034315
H      0.855757    4.881252   -2.144675
H     -0.170166    0.285379   -1.881508
H      0.753461   -1.857191   -1.292493
