50

C     -1.828893    2.646833    0.875782
C     -2.050608   -3.665559    1.055692
C      3.567929    1.164744   -2.071178
C     -0.028524    0.199325    0.520212
C      4.430695    1.773691   -0.985912
C     -1.160852   -0.719983    0.791272
C     -3.339891    2.789134   -1.077634
C     -4.522910   -3.524627    1.312105
C      2.160051    1.051236   -1.465175
C      1.113901   -0.644000   -0.083774
C     -4.239208    2.202312   -1.929525
C     -5.688951   -2.836817    1.244786
C      3.098174    0.511530    0.691562
C     -2.711513    1.978984   -0.199585
C     -3.365599   -2.886260    1.056953
C      4.485058    0.823642    0.171269
C     -2.384200   -0.525728    0.492721
C     -2.955398    0.693639   -0.178555
C     -3.386174   -1.601372    0.748945
C      5.128231   -0.441022   -0.212706
N      2.269189    0.112663   -0.396728
O      4.548821   -1.567960   -0.146193
O      6.432438   -0.420387   -0.672587
S     -4.185340    0.476012   -1.472156
S     -5.168917   -1.146301    0.788856
H     -2.340107    3.613969    1.194778
H     -0.870492    2.963730    0.464809
H     -1.765102    2.025875    1.763843
H     -1.544755   -3.643857    2.005781
H     -1.435244   -3.392733    0.195096
H     -2.270142   -4.770285    0.875075
H      3.481761    1.799453   -2.961894
H      3.886307    0.119630   -2.305577
H     -0.281199    0.881965   -0.345848
H      0.230026    0.757030    1.378986
H      3.896910    2.691163   -0.635823
H      5.449513    1.998371   -1.344548
H     -0.808394   -1.617641    1.346730
H     -3.176688    3.884668   -1.155932
H     -4.563604   -4.623929    1.588451
H      1.425441    0.702217   -2.186987
H      1.941564    2.083932   -1.076054
H      0.738183   -1.143264   -0.999787
H      1.395706   -1.421152    0.654716
H     -4.886604    2.649446   -2.743189
H     -6.748769   -3.117289    1.404166
H      2.681682    1.354750    1.278607
H      3.192911   -0.347190    1.386370
H      5.076885    1.300748    0.999194
H      7.076703   -1.193338   -0.523161
