61

C      0.976979   -1.293731    1.905469
C     -3.373375    0.140981    3.957540
C     -2.094294   -4.082319   -1.053054
C     -2.089594    0.621484    3.978466
C     -3.818382   -0.472824    2.782453
C     -1.714986   -3.927309    0.265334
C     -2.060944   -2.976542   -1.857780
C     -1.946198    2.313788   -3.543347
C     -1.040767    1.179539   -3.923597
C     -1.237857    0.504240    2.852284
C     -3.009161   -0.592179    1.689842
C     -1.311448   -2.720848    0.782510
C     -1.651016   -1.738203   -1.342742
C     -1.627895    2.633017   -2.128927
C     -0.118725    1.064322   -2.737434
C      3.876349   -0.049847   -0.706022
C      3.164521    1.136965    1.196925
C      4.699331    1.216950   -0.782887
C      4.633257    1.355713    1.521517
C      1.639152   -0.225873   -0.131015
C      0.567054   -0.197039    0.931498
C     -1.728235   -0.095063    1.756210
C     -1.272340   -1.592810   -0.033526
C     -1.257617    0.876659   -0.340362
C     -0.841355   -0.242316    0.486670
N      2.968104   -0.039150    0.444135
N     -0.956011    1.369308   -1.607151
O     -2.166664    1.635215    0.264412
O      5.412665    1.435704    0.396908
H      0.394661   -1.333403    2.830395
H      2.035374   -1.040916    2.290811
H      1.106800   -2.273191    1.474972
H     -4.039745    0.226664    4.819519
H     -2.411091   -5.022606   -1.476816
H     -1.691277    1.101316    4.851810
H     -4.839509   -0.843383    2.786741
H     -1.759358   -4.828716    0.869934
H     -2.352020   -3.078527   -2.891073
H     -1.894939    3.189183   -4.218430
H     -3.000689    1.905216   -3.643767
H     -1.584831    0.225735   -4.086926
H     -0.421749    1.423812   -4.819120
H     -0.225606    0.933498    2.962703
H     -3.352388   -1.072080    0.757326
H     -1.079781   -2.686739    1.808662
H     -1.690986   -0.943440   -2.032227
H     -0.886713    3.447766   -2.089774
H     -2.541621    2.827017   -1.567716
H      0.670264    1.843297   -2.893522
H      0.325939    0.055148   -2.653722
H      4.587341   -0.899926   -0.654980
H      3.342682   -0.131090   -1.667408
H      2.619991    1.253062    2.129731
H      2.860997    2.018772    0.558554
H      4.100352    2.079978   -1.094963
H      5.454563    1.043975   -1.579314
H      4.672941    2.358668    2.024745
H      4.953210    0.615336    2.269975
H      1.568333    0.691967   -0.784956
H      1.661716   -1.097106   -0.775454
H      0.796592    0.772882    1.469963
