72

C      9.807416    0.224705    0.607124
C      8.999423   -1.041630    0.596598
C      7.813023   -0.917671    1.532483
C      6.895076    0.216541    1.138232
C      6.391082   -0.044844   -0.244087
C      5.456831    1.036117   -0.740507
C      4.238673    1.168448    0.148182
C      3.474228   -0.133000    0.180433
C      2.265482   -0.041773    1.050823
C      1.268331    1.015206    0.613340
C      0.762341    0.740935   -0.789715
C      0.068015   -0.553966   -0.929864
C     -1.168783   -0.811425   -0.182976
C     -8.842778   -0.069216   -1.013280
C     -8.912852   -1.589709    0.955123
C     -7.529814   -0.202851   -1.074771
C     -7.602105   -1.703801    0.869030
C     -5.984107   -2.042897   -0.979024
C     -4.831480   -1.150560   -1.469292
C     -2.277412    1.451387   -0.305394
C     -4.691943    1.271925   -0.758972
C     -9.600632   -0.754759    0.003459
C     -3.661805    1.977329    0.118227
C     -2.389315   -0.023299   -0.488804
C     -6.760901   -1.029638   -0.146902
C     -4.674125   -0.198101   -0.339178
O    -10.860464   -0.657695    0.102821
O     -3.730070    3.342011   -0.035615
O     -3.474070   -0.469504    0.319281
O     -5.745549   -0.382999    0.526215
H      9.838668    0.666269    1.617960
H      9.463135    0.962082   -0.161422
H     10.883213   -0.000419    0.351595
H      9.634446   -1.862266    1.023956
H      8.726470   -1.353428   -0.417985
H      8.253926   -0.755586    2.559216
H      7.257548   -1.873644    1.613361
H      6.120242    0.323145    1.898489
H      7.524782    1.149068    1.177331
H      5.983557   -1.053368   -0.318312
H      7.287445   -0.002918   -0.928280
H      5.989476    1.992956   -0.726031
H      5.119529    0.755481   -1.741047
H      4.480938    1.514066    1.152482
H      3.614687    1.968761   -0.340712
H      3.283333   -0.511119   -0.828984
H      4.167516   -0.867141    0.687900
H      2.618398    0.291168    2.070461
H      1.786065   -1.025161    1.227487
H      0.484040    1.107159    1.365072
H      1.806374    1.981479    0.582318
H      0.282396    1.635188   -1.164086
H      1.720893    0.654261   -1.408495
H     -0.160072   -0.693382   -2.020761
H      0.800837   -1.365184   -0.675226
H     -1.448560   -1.898399   -0.393091
H     -0.990254   -0.851743    0.945316
H     -9.375955    0.562211   -1.730884
H     -9.483333   -2.115812    1.733030
H     -7.030392    0.337267   -1.864739
H     -7.105986   -2.334196    1.591221
H     -6.625225   -2.359463   -1.823567
H     -5.604508   -2.874575   -0.370407
H     -5.128465   -0.653106   -2.416024
H     -3.962108   -1.830659   -1.630793
H     -1.548869    1.682877    0.477271
H     -1.980532    1.980509   -1.246402
H     -4.521786    1.414591   -1.824951
H     -5.666886    1.714500   -0.481091
H     -3.829427    1.636043    1.154727
H     -2.688500   -0.290686   -1.539598
H     -4.678773    3.617903   -0.061156
