48

C      1.434594   -2.115824   -1.693686
C      5.604265    1.755027   -0.786002
C      4.407487    2.340249   -0.431923
C      5.775782    0.422627   -0.524223
C     -5.073716    0.226217    1.572463
C      3.415524    1.602544    0.168501
C      4.762772   -0.327288    0.089413
C     -3.779393   -0.283137    1.400266
C     -5.431743    1.301542    0.786364
C     -1.582438   -1.669962   -0.340897
C     -0.884625   -1.517673   -1.647911
C      2.517372   -0.497229    1.110596
C     -3.313182    1.333068   -0.261076
C     -0.579872    0.606112   -0.273669
C     -1.071608   -0.682324    1.785772
C      3.572553    0.234382    0.447186
C     -2.900293    0.252665    0.501786
C     -4.566366    1.862597   -0.128311
C      1.277264   -0.652141    0.721589
C      0.756292   -0.096740   -0.520113
C      0.288723   -1.325271    1.614087
C     -1.538604   -0.339319    0.388904
N      0.460785   -1.093489   -1.538340
O     -4.984432    2.969702   -0.901867
O      0.624690   -2.374032    2.176577
H      1.017977   -3.093054   -1.308359
H      1.552615   -2.268506   -2.810458
H      2.431666   -1.917828   -1.310584
H      6.407490    2.344865   -1.263984
H      4.311910    3.410210   -0.655051
H      6.722460   -0.044071   -0.810714
H     -5.764341   -0.193808    2.285805
H      2.492887    2.091051    0.438265
H      4.959906   -1.369182    0.266199
H     -3.576710   -1.139735    2.057593
H     -6.444952    1.693401    0.927908
H     -2.623548   -2.019430   -0.456647
H     -1.074850   -2.482012    0.233948
H     -1.491703   -0.858882   -2.285271
H     -0.908950   -2.543160   -2.129469
H      2.776526   -1.019944    2.085149
H     -2.619552    1.757883   -0.968261
H     -0.419559    1.526878    0.285067
H     -0.934617    0.807407   -1.331054
H     -1.704999   -1.388233    2.331797
H     -0.910901    0.264265    2.326547
H      1.449710    0.604719   -1.019907
H     -4.840297    3.904863   -0.604005
