49

C     -5.468891   -0.345665   -0.265392
C     -4.960529    0.067951    1.085030
C      1.978518   -2.797740   -0.738357
C      3.180670   -2.927783   -0.028930
C      2.208802    2.422721   -1.186668
C      1.354756    1.279716   -1.719476
C     -0.055982    0.270830    1.646832
C     -1.482912    0.311756    1.176850
C     -0.043050   -1.460631   -1.273185
C     -2.999609    0.149563   -0.611727
C     -4.043650   -0.633981    0.181146
C      1.219810   -1.666220   -0.554494
C      2.966761    1.930280    0.009589
C      3.601838   -1.933221    0.845720
C     -0.648464   -0.099365   -1.070469
C      1.678236   -0.728832    0.310746
C      2.834265   -0.800049    1.024812
C      2.113304    1.380664    1.096292
C      0.970190    0.539623    0.614746
C      0.339621    0.970615   -0.671637
F      3.677726    3.013252    0.528219
N     -1.701032   -0.177779   -0.127474
O      4.787720   -2.036732    1.559479
O     -0.394576    2.128272   -0.424670
O      2.894708    0.371882    1.769631
H     -5.644440    0.421568   -1.038488
H     -6.193762   -1.170309   -0.281487
H     -5.321313   -0.535321    1.963262
H     -4.750961    1.135032    1.281903
H      1.668756   -3.591351   -1.419148
H      3.819183   -3.793810   -0.132544
H      1.520327    3.255355   -0.937384
H      2.932702    2.786065   -1.919625
H      2.006756    0.439237   -1.982291
H      0.824641    1.702986   -2.614781
H      0.032057    1.069598    2.436569
H      0.122952   -0.685919    2.199282
H     -1.891682    1.357897    1.295870
H     -2.076763   -0.302127    1.891513
H     -0.766894   -2.236789   -0.882883
H      0.064538   -1.729717   -2.360703
H     -3.120678   -0.158263   -1.675244
H     -3.248567    1.239139   -0.545600
H     -3.794373   -1.719233    0.277573
H      3.746026    1.214910   -0.341517
H     -1.071203    0.208016   -2.052564
H      1.816945    2.112073    1.872219
H      5.360959   -2.873907    1.430886
H     -0.043436    2.625745    0.358572
