72

C      7.446973    0.138913   -1.957412
C      7.229537   -0.786060   -0.781219
C      7.558656   -0.045585    0.489064
C      6.665817    1.155533    0.600340
C      5.208949    0.779907    0.632015
C      4.891692   -0.107941    1.788462
C      3.447993   -0.513870    1.898473
C      2.997577   -1.265509    0.695472
C      1.574773   -1.720875    0.735838
C      0.573580   -0.598682    0.859078
C      0.707820    0.339616   -0.319885
C     -0.236019    1.468369   -0.307540
C     -1.682699    1.237042   -0.385249
C     -6.025346    2.479089    1.737146
C     -6.038843    0.545755    3.299766
C     -5.669671    1.680604    0.776801
C     -5.682008   -0.204619    2.296471
C     -6.471012   -0.448121    0.000877
C     -5.791528   -0.199391   -1.326899
C     -1.754123   -0.717724   -1.909841
C     -3.875397   -1.685939   -1.296352
C     -6.237941    1.967499    3.079658
C     -2.918509   -1.589369   -2.458421
C     -2.273365    0.640787   -1.595371
C     -5.454730    0.249131    0.932893
C     -4.323252   -0.281412   -0.944996
O     -6.582495    2.716557    4.028644
O     -3.435880   -0.922045   -3.540780
O     -3.668441    0.705611   -1.622779
O     -4.225185   -0.168699    0.421973
H      8.271870    0.845352   -1.658919
H      6.549628    0.743926   -2.168059
H      7.731507   -0.457965   -2.854009
H      7.983081   -1.619192   -0.866573
H      6.211956   -1.166200   -0.736831
H      7.463344   -0.691794    1.386184
H      8.630905    0.296483    0.484467
H      6.897482    1.807270   -0.277436
H      6.914277    1.760562    1.512710
H      4.637007    1.754715    0.697010
H      4.917020    0.317172   -0.322693
H      5.220796    0.383073    2.741430
H      5.508922   -1.043131    1.724159
H      3.351014   -1.125155    2.821888
H      2.811612    0.395918    2.007864
H      3.174283   -0.650268   -0.220556
H      3.656601   -2.164217    0.549962
H      1.480064   -2.445647    1.569035
H      1.402084   -2.323542   -0.195244
H     -0.447144   -0.959954    1.045577
H      0.859873   -0.046366    1.803827
H      1.740524    0.800231   -0.186873
H      0.799173   -0.257703   -1.219513
H     -0.052736    2.020717    0.672757
H      0.100922    2.218143   -1.067199
H     -2.168215    2.262473   -0.265281
H     -2.073800    0.707215    0.545819
H     -6.176025    3.566763    1.561261
H     -6.185606    0.103723    4.295957
H     -5.528846    2.149016   -0.207690
H     -5.541373   -1.267470    2.497852
H     -6.475928   -1.525996    0.183426
H     -7.458174    0.039858    0.064497
H     -6.052784   -0.976543   -2.077060
H     -6.013753    0.813486   -1.657885
H     -1.381538   -1.313027   -1.065850
H     -0.966705   -0.720275   -2.695793
H     -4.714004   -2.335648   -1.575273
H     -3.308258   -2.163737   -0.461864
H     -2.492054   -2.549922   -2.752264
H     -1.990136    1.280613   -2.502850
H     -3.243790   -1.311528   -4.409139
