41

C     -3.354085   -1.485446   -0.224474
C      5.110095   -1.158780   -0.167260
C      1.145925   -2.530066    0.252151
C      2.444821   -2.078229    0.114364
C     -1.509911    2.363978    1.535790
C     -1.166605    1.156151    1.180298
C     -1.587489    0.466263   -1.120567
C     -1.463164   -0.936294   -1.601280
C      0.140230    3.293805    0.069486
C     -1.239072   -2.297504    0.362443
C      0.102552   -1.629714    0.190147
C     -1.252022    3.496419    0.620342
C      2.719893   -0.744682   -0.083887
C      0.339826    1.969911   -0.610924
C      0.404722   -0.293379   -0.010284
C      1.680860    0.189013   -0.150591
C     -0.526762    0.876538   -0.111945
Cl    -2.456387    3.719144   -0.631792
N     -2.095862   -1.908217   -0.743031
O      4.001565   -0.248770   -0.226663
O      1.689032    1.575040   -0.339335
H     -3.936831   -2.420060    0.026828
H     -3.222528   -0.969993    0.752688
H     -3.953559   -0.876481   -0.931540
H      5.030556   -1.805219   -1.058541
H      6.065409   -0.603413   -0.109889
H      5.010996   -1.790200    0.743604
H      0.935080   -3.580331    0.408056
H      3.303035   -2.761723    0.157443
H     -1.991488    2.568406    2.508087
H     -1.349547    0.298935    1.849113
H     -2.567619    0.588771   -0.625325
H     -1.606812    1.199012   -1.981651
H     -1.955339   -1.003748   -2.603274
H     -0.387147   -1.151075   -1.756769
H      0.437704    4.119645   -0.611128
H      0.828260    3.339312    0.939722
H     -1.683574   -2.081010    1.341468
H     -1.083899   -3.389733    0.288219
H     -1.197795    4.461637    1.199567
H      0.196935    2.062087   -1.726353
