47

C     -3.380509   -2.444110    1.155227
C     -2.674286   -1.192758    1.511793
C      5.541093    0.251881    0.618178
C      5.757461   -0.994972    0.093625
C     -3.503098    1.316099   -0.475013
C      4.297920    0.825683    0.570691
C      4.700880   -1.649179   -0.477173
C     -0.115602   -0.718068   -1.263066
C      1.241451    1.794560    0.248789
C     -3.085783   -0.130170   -0.650854
C     -0.948803   -1.374400   -0.189147
C     -2.333182    2.243669   -0.737288
C      0.058271    2.260425   -0.476212
C     -1.341649    0.770156    0.882182
C      3.203317    0.184592   -0.003628
C      1.854430    0.525592   -0.186411
C      3.457618   -1.059280   -0.517189
C      1.312609   -0.529995   -0.813704
C     -2.041883   -0.486693    0.334460
N      2.263282   -1.470883   -1.010228
N     -1.191033    1.746399   -0.092244
H     -3.279892   -2.769157    0.118980
H     -4.489941   -2.353733    1.346213
H     -3.062883   -3.303993    1.814052
H     -3.351997   -0.532045    2.082786
H     -1.838390   -1.441881    2.227951
H      6.349923    0.785431    1.070352
H      6.765866   -1.459838    0.132393
H     -4.001898    1.517546    0.473355
H     -4.250440    1.534267   -1.286915
H      4.113894    1.827346    0.989506
H      4.837659   -2.620877   -0.894117
H     -0.553698    0.170803   -1.706532
H     -0.171384   -1.449420   -2.134436
H      1.031420    1.845387    1.354140
H      2.025495    2.622536    0.153653
H     -2.780983   -0.239295   -1.710077
H     -4.006691   -0.736455   -0.532342
H     -1.366605   -2.354674   -0.466447
H     -0.260447   -1.572266    0.672113
H     -2.574550    3.256126   -0.312229
H     -2.146495    2.405649   -1.812517
H      0.220078    2.384133   -1.590545
H     -0.054678    3.375419   -0.211824
H     -1.992711    1.187828    1.710399
H     -0.416101    0.474736    1.363443
H      2.182943   -2.422120   -1.471955
