46

C      7.950750   -0.206257   -0.009194
C     -0.772471    0.850729    1.369809
C      7.258706   -0.942229    1.123991
C     -7.697074    0.283307   -0.576417
C     -6.856378    1.376080   -0.437563
C     -7.148464   -0.976261   -0.390718
C      1.952481    1.041399   -0.702169
C      3.408976    0.667974   -0.725244
C     -2.703042   -0.243393   -0.822962
C      1.039009    0.297228   -0.116198
C     -1.255341   -0.360831   -0.734100
C     -5.530787    1.182587   -0.126221
C     -5.803990   -1.144436   -0.076119
C     -3.526912   -0.153527    0.395889
C      3.632761   -0.641168    0.001657
C     -0.428303    0.664961   -0.087687
C     -4.975774   -0.065787    0.060626
C      5.077116   -0.976366   -0.038933
O      5.626384   -1.531769   -1.021515
O      5.868880   -0.666113    1.055809
H      7.264557    0.564287   -0.409062
H      8.202341   -0.888652   -0.858846
H      8.877261    0.317775    0.341135
H     -1.325398    1.808366    1.558719
H      0.175425    1.002033    1.982326
H     -1.262914   -0.013436    1.828929
H      7.480624   -2.024523    1.106029
H      7.621013   -0.464381    2.072686
H     -8.749469    0.404100   -0.822153
H     -7.235618    2.380741   -0.572929
H     -7.788978   -1.858420   -0.493257
H      1.623606    1.954475   -1.181720
H      3.833605    0.674323   -1.726845
H      3.919526    1.451805   -0.124639
H     -3.070300   -1.162624   -1.381405
H     -3.020301    0.589425   -1.527262
H      1.356767   -0.620279    0.367677
H     -0.941265   -1.359262   -0.286709
H     -0.866417   -0.467977   -1.798943
H     -4.914447    2.068539   -0.027418
H     -5.388625   -2.119652    0.065048
H     -3.399865   -1.103721    0.976450
H     -3.349786    0.736633    1.032921
H      3.314904   -0.575961    1.043246
H      3.014370   -1.425493   -0.504449
H     -0.487144    1.675754   -0.538043
