37

C     -2.800092    0.738340    2.151195
C     -4.994106    1.614887    1.538181
C     -1.888815   -0.912304   -0.350739
C     -3.205367   -1.178211   -0.300983
C     -0.982923   -1.767803   -1.000315
C     -4.204160   -0.353209    0.346026
C      0.193696   -2.030032   -1.332096
C      3.832733   -0.432851    0.434617
C     -3.760018    0.888026    1.022910
C      3.053732    0.018361   -0.530578
C      5.211699   -0.026669    0.531309
C      1.471372   -1.512215   -1.213505
C      3.602454    0.943513   -1.509125
C      5.690693    1.168072   -0.197223
C      4.876896    1.598188   -1.310459
N      1.720619   -0.433492   -0.600961
O      6.029388   -0.687136    1.239916
O      2.593154   -2.176516   -1.785387
O      2.911832    1.154018   -2.547346
O      5.001628    2.361778   -0.081125
H     -2.436717   -0.281388    2.344180
H     -3.276152    1.078638    3.126093
H     -1.927358    1.410796    2.043796
H     -5.461321    1.013218    2.356528
H     -5.747564    1.811692    0.765267
H     -4.675701    2.577399    2.024026
H     -1.644379    0.018483    0.150077
H     -3.537272   -2.099339   -0.793520
H     -1.594992   -2.641311   -1.513911
H     -4.871453   -0.985659    1.015814
H     -4.917184   -0.032249   -0.474986
H      0.154058   -3.044224   -1.882778
H      3.475602   -1.133429    1.206591
H     -3.281671    1.532302    0.236274
H      6.775974    1.261165   -0.313660
H      5.351218    2.094558   -2.190573
H      3.260499   -1.555396   -2.280575
