32

C     -3.078212    1.122993    1.015457
C      1.558152    1.170570    0.807665
C      2.186594   -1.065987    0.472600
C      3.197902    0.623604   -0.754010
C     -0.828526   -1.297179   -0.281980
C      1.008043    0.118263   -1.266796
C     -2.339415    0.519249   -0.135096
C     -0.426239   -0.049206   -0.975397
C     -2.315837   -0.990786   -0.027592
N      1.911417    0.170018   -0.187421
O     -2.717602   -1.454776    1.204221
O     -1.004298    0.930577   -0.206886
H     -3.577384    2.068383    0.695087
H     -2.468752    1.231461    1.913885
H     -3.931092    0.430445    1.274811
H      0.950475    0.749256    1.627366
H      0.996631    2.010157    0.335525
H      2.495077    1.555576    1.303990
H      1.800668   -1.941020   -0.082344
H      1.817551   -1.049229    1.540640
H      3.291647   -1.267777    0.597799
H      3.744028   -0.295560   -1.112447
H      3.036414    1.237293   -1.662869
H      3.809508    1.111712    0.013306
H     -0.403640   -1.425760    0.714622
H     -0.781787   -2.205367   -0.916917
H      1.328922   -0.662042   -1.976478
H      1.113361    1.089812   -1.836033
H     -2.852535    0.857010   -1.071337
H     -0.964280   -0.032811   -1.970071
H     -2.922869   -1.404941   -0.873106
H     -3.633920   -1.853939    1.079176
