95

C      4.987408   -1.979013   -2.090705
C     -4.187278   -0.641189   -0.683674
C      7.884308    2.612269    2.697770
C     -6.537402    5.085633   -2.124281
C      0.111769    0.693216    5.389881
C     -2.300346   -3.637118   -3.875632
C     -0.653635   -4.711229    4.587001
C      4.342033    0.688714    1.288260
C      5.478254    1.302126    1.749969
C     -5.249697    1.573865    1.290322
C      2.355640   -1.983614   -3.865721
C      3.384214   -0.951636   -3.477166
C     -5.004439    0.082896    1.392809
C      2.658706    0.200661   -0.486946
C      4.650518    1.684883   -0.831133
C     -1.395611    0.307797    0.571501
C     -5.230870    3.137401   -0.635389
C      0.106857   -2.633293   -3.134346
C     -0.688332   -0.257562    2.845934
C     -2.711327    2.262386   -1.319573
C      0.621744   -1.907476   -0.520179
C     -1.058827   -2.973875    2.451835
C      3.895521    0.866681   -0.027174
C     -4.595858    2.190443    0.107336
C      1.366862   -2.113549   -2.794177
C     -1.083748   -0.714437    1.568093
C     -3.307672    1.732472   -0.227045
C      1.606826   -1.763234   -1.522693
C      2.920378   -1.161365   -1.117307
C     -2.814253    0.718288    0.708882
C      5.785838    2.289361   -0.343800
C     -3.344686    3.230698   -2.093166
C      6.247233    2.135599    0.933756
C     -1.247727   -2.036856    1.419826
C     -4.627033    3.672420   -1.741171
C     -0.484865   -1.117553    3.890648
C     -0.865872   -2.772646   -2.136939
C     -0.677622   -2.485496    3.677096
C     -0.618135   -2.411912   -0.828274
N      3.868658   -1.088132   -2.159399
N     -3.785398   -0.351552    0.703652
O      6.535341    3.121057   -1.195885
O     -2.756436    3.773863   -3.199686
O      7.395017    2.760873    1.388922
O     -5.267844    4.634493   -2.500479
O     -0.092437   -0.701386    5.163690
O     -2.088482   -3.288555   -2.532055
O     -0.468946   -3.334817    4.752549
O     -1.621349   -2.553047    0.168484
H      4.718474   -3.052154   -1.985750
H      5.719416   -1.678019   -1.306300
H      5.544318   -1.913621   -3.046594
H     -3.892203   -1.640687   -1.007859
H     -3.739884    0.072694   -1.387638
H     -5.310101   -0.593376   -0.762254
H      8.545224    3.487669    2.983045
H      7.125186    2.506175    3.482181
H      8.536169    1.704681    2.742353
H     -7.319310    4.324639   -2.048823
H     -6.466192    5.589224   -1.118929
H     -6.891676    5.860763   -2.839696
H      0.776432    0.822228    6.294894
H      0.698411    1.145814    4.566010
H     -0.831622    1.193609    5.617770
H     -1.593228   -4.474572   -4.140817
H     -2.123437   -2.829519   -4.588382
H     -3.323423   -4.094897   -3.966280
H     -1.663329   -4.915895    4.137520
H     -0.677062   -5.195942    5.589865
H      0.091522   -5.175381    3.930589
H      3.760244    0.054899    1.929396
H      5.835609    1.160969    2.774868
H     -4.870183    2.072122    2.212286
H     -6.328922    1.783435    1.226585
H      2.924510   -2.927795   -4.046906
H      1.900038   -1.638305   -4.822614
H      4.225828   -1.069155   -4.222360
H      2.992540    0.083925   -3.698978
H     -5.008183   -0.203529    2.462316
H     -5.846592   -0.458236    0.911605
H      1.968854    0.082208    0.342764
H      2.172156    0.880495   -1.220069
H      4.310691    1.822063   -1.854691
H     -1.138358    0.049303   -0.473666
H     -0.766929    1.242614    0.760232
H     -6.239916    3.457077   -0.309187
H     -0.096381   -2.917939   -4.161108
H     -0.545749    0.798307    3.009549
H     -1.717928    1.917360   -1.590619
H      0.890391   -1.614836    0.486340
H     -1.215896   -4.029442    2.259638
H      3.305082   -1.799530   -0.296497
H     -2.874978    1.183186    1.765237
H      6.236552    3.266595   -2.129860
H     -3.233163    4.473226   -3.743385
