65

C     -7.135287   -0.318444   -0.915632
C     -7.795371   -1.664026    1.045956
C      5.739434    0.561029    0.671457
C      6.464806   -1.725832    0.101726
C      3.094534   -2.116057   -2.760331
C      1.361000    3.290365   -0.995646
C      2.372281   -1.000805   -3.103990
C      2.149047    2.494577   -1.984638
C      3.717848   -2.269855   -1.527029
C     -3.633505   -1.453091    1.105276
C     -3.937383    0.656479    2.228821
C     -4.958755   -1.457262    0.684999
C     -5.244366    0.650324    1.812720
C      0.649576    2.517092    0.055148
C      2.865672   -0.120694   -0.967237
C      0.058077    1.234153   -2.002779
C     -1.750010   -0.410265    2.287836
C     -7.158873   -0.373847    0.612630
C     -3.146700   -0.414974    1.858432
C     -5.739063   -0.386376    1.057775
C      2.247711    0.031005   -2.190774
C      1.482055    1.268897   -2.516950
C      3.601822   -1.250294   -0.609040
C      5.768097   -1.151837    2.371714
C     -0.804700    0.474647    0.172146
C      5.490058   -0.911734    0.928414
N     -0.036240    1.406575   -0.570591
O      6.908970   -0.824912    2.845356
O      4.811683   -1.717511    3.185352
O     -1.405396   -0.492456   -0.385712
O     -0.964656    0.537624    1.548834
O      4.198784   -1.337070    0.642155
H     -8.042458    0.275129   -1.203924
H     -7.141300   -1.329981   -1.320376
H     -6.235900    0.256083   -1.250586
H     -7.394141   -2.507310    0.441022
H     -8.891254   -1.554298    0.856936
H     -7.562721   -1.901157    2.108354
H      5.342315    1.221573    1.460241
H      5.433716    0.877377   -0.334146
H      6.861060    0.670278    0.717502
H      7.468011   -1.318863    0.240574
H      6.356318   -2.788423    0.469748
H      6.101110   -1.634770   -0.956107
H      3.221533   -2.958988   -3.445175
H      1.957776    4.081601   -0.502423
H      0.574446    3.858373   -1.575306
H      1.922569   -0.950562   -4.063175
H      2.471153    3.147143   -2.859423
H      3.128764    2.206481   -1.526735
H      4.291834   -3.172161   -1.274756
H     -3.030445   -2.321492    0.802679
H     -3.516435    1.467576    2.830353
H     -5.355510   -2.277169    0.085458
H     -5.886069    1.484609    2.094656
H     -0.139826    3.205897    0.479141
H      1.261903    2.210277    0.917272
H      2.798783    0.673885   -0.207544
H     -0.455200    2.098172   -2.522130
H     -0.483162    0.330354   -2.344252
H     -1.260469   -1.412965    2.251753
H     -1.649176   -0.099667    3.359437
H     -7.694405    0.503025    1.028220
H      1.385687    1.378814   -3.633796
H      4.890344   -1.655740    4.190110
