71

C      8.212606   -1.918217   -0.445876
C      7.542141    0.238041    0.861415
C     -4.229463   -0.310728    3.345244
C     -6.382021   -0.864979    2.356070
C      4.275798   -1.349792   -0.265830
C     -3.805999    2.326863    0.852371
C      6.047432    1.095206   -1.358296
C      6.780203   -0.187105   -1.390413
C      4.589921    0.886418   -1.556525
C      2.957627    0.656591    0.173800
C      2.191685   -0.054204    1.221757
C      0.058413    1.022478    1.893744
C     -1.290914    1.229816    1.753155
C     -3.173861   -1.107354   -1.701485
C     -0.701170   -1.682667   -1.597301
C     -3.941933    0.434783   -3.444400
C      7.494573   -0.615156   -0.354679
C     -5.217610    0.062724    2.258536
C      3.919003    0.047635   -0.510873
C      0.726692    0.155250    1.054364
C     -1.817056   -1.011287   -1.104474
C     -3.805377    0.206347   -1.955210
C     -2.072377    0.586050    0.765535
C     -1.397754   -0.267768   -0.061215
C     -0.014343   -0.481375    0.082535
C     -4.527898   -0.028587    0.888203
C     -5.458725    0.329553   -0.193184
N      0.370949   -1.354628   -0.875716
N     -5.086175    0.412057   -1.380143
N     -3.431916    0.916549    0.821448
O     -4.376842    1.727815   -3.732394
O     -6.767526    0.576363    0.128813
H      8.667217   -2.125521    0.552312
H      9.018686   -1.806899   -1.208218
H      7.521904   -2.726139   -0.747535
H      8.054238   -0.359382    1.661090
H      6.535881    0.493062    1.256870
H      8.154617    1.132436    0.651008
H     -3.817182   -1.326418    3.086993
H     -4.847875   -0.500279    4.267161
H     -3.452209    0.432517    3.508174
H     -6.234211   -1.635280    3.167955
H     -7.307638   -0.310753    2.691566
H     -6.567913   -1.457380    1.441792
H      4.909900   -1.717273   -1.121467
H      4.946941   -1.460454    0.642065
H      3.466985   -2.070856   -0.182534
H     -3.096848    2.961545    1.399466
H     -3.829016    2.687388   -0.195511
H     -4.837961    2.484936    1.229737
H      6.436232    1.760720   -2.174487
H      6.263648    1.642496   -0.404103
H      6.728416   -0.795516   -2.315485
H      4.374765    0.337070   -2.521077
H      4.078476    1.859609   -1.687857
H      2.724439    1.720421   -0.045702
H      2.431273   -1.128833    1.231467
H      2.516904    0.304102    2.247415
H      0.652975    1.523812    2.659708
H     -1.734047    1.951518    2.456012
H     -3.087851   -1.583321   -2.736235
H     -3.851069   -1.819843   -1.198625
H     -0.633190   -2.380479   -2.430126
H     -3.039582    0.150952   -4.006458
H     -4.762026   -0.255206   -3.788716
H     -5.561607    1.090040    2.484950
H     -3.075798    0.994994   -1.614292
H     -4.127300   -1.037410    0.873723
H      1.355943   -1.683701   -0.992053
H     -5.227609    1.863434   -3.239060
H     -7.416589    1.113199   -0.430055
