43

C      6.494347    0.246501    2.668946
C     -6.379745   -0.111901   -2.030027
C      3.086157    0.220565   -0.726438
C      2.603434    1.033435    1.436842
C      4.384952   -0.056331   -0.361129
C      3.897632    0.765928    1.828085
C     -1.726686   -2.239003   -1.233369
C     -0.514476   -2.394482   -0.336243
C      0.773238    1.062439   -0.247346
C     -3.613281   -0.650348   -1.309376
C     -2.163440    1.329956   -0.161659
C      2.169832    0.767908    0.155665
C     -2.279345   -0.878367   -0.951108
C      4.795337    0.220162    0.932996
C     -1.515256    0.108466   -0.365578
C     -0.122768   -0.120245    0.011485
C     -3.460541    1.560844   -0.506914
C     -4.202192    0.555632   -1.091361
N      0.382032   -1.288176   -0.682083
O     -4.024919    2.820123   -0.262718
O      6.076033   -0.031105    1.363711
O     -5.517569    0.807405   -1.435474
H      6.467004    1.363275    2.792281
H      7.513957   -0.077204    2.871816
H      5.788837   -0.146354    3.449460
H     -6.355853   -0.064740   -3.153652
H     -6.188094   -1.132436   -1.688356
H     -7.418911    0.174158   -1.755818
H      2.799577   -0.013781   -1.763585
H      1.948083    1.462488    2.189639
H      5.105615   -0.484477   -1.047307
H      4.201558    0.994019    2.862184
H     -2.482233   -3.025031   -1.055643
H     -1.388271   -2.211248   -2.308944
H     -0.878915   -2.243397    0.706317
H     -0.023612   -3.367447   -0.447259
H      0.452430    1.975147    0.244767
H      0.782500    1.276805   -1.349780
H     -4.177433   -1.465089   -1.771005
H     -1.605983    2.125929    0.291421
H     -0.071204   -0.340003    1.095281
H      1.369684   -1.515807   -0.436430
H     -4.981512    2.985789   -0.518880
