46

C      5.629270    1.944840   -0.592953
C     -4.484254   -0.958244   -0.041402
C     -1.833919    2.271282    2.586248
C      5.298009    0.648135    0.099612
C      3.383421   -0.437558   -1.112980
C      2.918987    0.747677    0.871241
C      2.046817   -0.743328   -1.248361
C      1.568642    0.436537    0.731000
C     -2.313850   -2.379419   -1.226227
C     -2.492407   -1.139283   -2.054004
C     -0.891755   -1.471916    0.651020
C      3.841580    0.311925   -0.052643
C      1.098027   -0.312350   -0.325252
C     -2.289671   -1.902538    0.200726
C     -0.329145   -0.637378   -0.464666
C     -2.601204   -0.013854   -1.082185
C     -1.209761    0.552149   -0.764901
C     -1.292163    1.531144    0.336667
N     -3.088075   -0.693218    0.125255
O     -0.875360    2.698720    0.128473
O     -1.797698    1.250286    1.584301
H      6.447411    1.777188   -1.302722
H      4.692792    2.316989   -1.075788
H      5.948018    2.663175    0.190284
H     -4.898338   -0.223128   -0.760678
H     -4.718360   -1.959218   -0.440096
H     -5.060325   -0.820421    0.917534
H     -0.823218    2.510200    2.967664
H     -2.505924    2.006248    3.419417
H     -2.219434    3.232979    2.143149
H      5.513446    0.683954    1.194012
H      5.879829   -0.188842   -0.312470
H      4.107389   -0.777640   -1.834989
H      3.284875    1.342986    1.712932
H      1.662876   -1.334138   -2.078382
H      0.899029    0.810784    1.494378
H     -1.474925   -3.015103   -1.512424
H     -3.226167   -3.040431   -1.315640
H     -3.498025   -1.197103   -2.570846
H     -1.775073   -1.006271   -2.866087
H     -0.992918   -0.946319    1.604738
H     -0.251046   -2.383043    0.745804
H     -2.726572   -2.659855    0.848904
H     -0.419858   -1.284453   -1.388387
H     -3.293319    0.761423   -1.421276
H     -0.837654    1.026429   -1.688777
