54

C      4.306036    2.388831    2.911286
C      2.952285    0.005618    1.454038
C     -1.372542   -1.778588   -3.027422
C     -0.725201   -3.316602   -1.276890
C     -1.270992    1.366695   -1.261435
C      3.032945    2.629366    3.091274
C      1.847094    0.328421   -1.178084
C      0.747492   -0.405987   -1.872255
C      0.762119    2.428266    2.408547
C      2.495673    1.376736    0.969977
C      2.053152    2.143873    2.152303
C      1.410620    1.234925   -0.077633
C     -0.250936    1.949787    1.477601
C     -0.304267   -0.928336   -0.911436
C      0.162295    0.836124    0.620487
C     -2.489786   -1.489224    0.536048
C     -2.633316   -1.875441   -0.903803
C     -2.115902   -0.018312    0.573516
C     -1.241880   -1.885112   -1.512805
C     -0.914966    0.294087   -0.280078
O     -1.367768    2.518219    1.486905
O     -3.732414   -1.612412    1.148262
O     -3.512483   -1.063292   -1.608826
O     -3.237385    0.693876    0.148269
H      5.019988    2.759196    3.621399
H      4.643482    1.827352    2.071295
H      3.955972   -0.199176    0.986969
H      2.992512   -0.042738    2.554883
H      2.297338   -0.806539    1.104524
H     -2.111155   -1.023035   -3.338086
H     -1.814201   -2.764429   -3.359069
H     -0.400071   -1.709623   -3.520781
H     -1.006660   -3.991385   -2.083650
H     -1.174820   -3.729526   -0.332813
H      0.371413   -3.278479   -1.073117
H     -1.815886    1.032177   -2.143795
H     -1.967668    2.077175   -0.725787
H     -0.379078    1.932572   -1.641529
H      2.685813    3.203442    3.957300
H      2.343166    0.979126   -1.957577
H      2.639950   -0.380522   -0.860700
H      1.212146   -1.324237   -2.335834
H      0.271363    0.145265   -2.697794
H      0.476412    3.006027    3.295367
H      3.367867    1.934886    0.545086
H      1.250367    2.283078   -0.470909
H      0.281644   -1.463369   -0.105062
H      0.430934   -0.014647    1.315672
H     -1.706660   -2.091166    0.993519
H     -3.080618   -2.901737   -0.922640
H     -1.951428    0.263237    1.645922
H     -3.853278   -1.010297    1.904978
H     -3.827243   -1.601231   -2.391699
H     -3.751474    1.067087    0.896077
