34

C      3.462066   -0.646954   -0.955377
C     -2.563634    1.317399    1.927678
C      3.348218    1.116878    0.551941
C      2.418879    0.275769   -0.315143
C     -1.744439    0.852191    0.745238
C      4.515089    0.345379   -1.277937
C     -2.550744   -0.123343   -0.071888
C     -1.905942   -1.470806   -0.159501
C     -0.436948   -1.420264   -0.422877
C      0.191758   -0.145693    0.091368
O     -3.760999    1.842480    1.409248
O      5.337721    0.244776   -2.217372
O     -2.774293    0.363434   -1.377740
O     -2.169997   -2.232035    0.998386
O     -0.124995   -1.530083   -1.781690
O      4.409592    1.375608   -0.358943
O      1.506509   -0.430603    0.431522
O     -0.532662    0.313495    1.163358
H      3.840641   -1.285417   -0.136818
H      3.069323   -1.176291   -1.817036
H     -2.766742    0.496097    2.636018
H     -1.998044    2.158578    2.424589
H      3.743257    0.441628    1.344809
H      2.871656    2.018827    0.930042
H      1.973090    0.952307   -1.060829
H     -1.539333    1.734749    0.107433
H     -3.554457   -0.257232    0.381304
H     -2.380167   -2.009436   -1.015959
H      0.065851   -2.275602    0.076061
H      0.203137    0.616039   -0.736346
H     -3.516632    2.624293    0.843345
H     -3.618419    0.863382   -1.392727
H     -3.120261   -2.480981    1.048806
H      0.101921   -2.468570   -2.012963
