73

C     -3.281535    2.903882    0.111631
C     -3.851281    2.154181   -3.576548
C     -4.255433   -3.249911    2.851162
C      4.582590    3.890740   -0.742088
C      3.458943   -3.717208    0.734505
C     -5.842219   -1.606904   -0.127916
C      2.174304    4.251890    1.606080
C     -3.831200    2.839585   -1.267843
C      0.391309   -1.372300    1.942581
C      4.106274   -1.059235   -1.593904
C     -0.188689    0.719654   -0.531049
C     -3.243068    2.168854   -2.236756
C     -3.295917   -2.612108    1.900182
C      4.126212    2.545568   -0.283581
C     -0.971814   -1.669114    1.452202
C      3.826037    0.046637   -0.622679
C      1.345232   -1.742523    0.869968
C      3.269425   -2.246804   -1.168402
C     -0.319033   -0.753357   -0.712671
C     -1.326389   -1.388228    0.213464
C      3.253646   -0.113552    0.556350
C      2.784420   -1.421827    1.059240
C     -1.938937   -2.288460    2.339028
C      4.290108    1.368664   -1.109305
C     -2.670239   -1.707025   -0.230993
C      3.106889    1.111818    1.370202
C     -3.654803   -2.335269    0.663476
C      3.559957    2.414410    0.902441
C      1.860957   -1.814540   -1.481444
C     -2.010969    1.457158   -1.973059
N      3.508030   -2.401832    0.231831
N      0.962766   -1.428252   -0.475972
O     -1.637412   -2.570260    3.528210
O      4.836059    1.493988   -2.250630
O     -3.064908   -1.469237   -1.392489
O      2.584220    1.096809    2.514266
O      1.485304   -1.801004   -2.674687
O     -1.475789    0.824036   -2.930413
O     -4.938548   -2.636968    0.231104
O      3.397763    3.541727    1.710192
O     -1.376842    1.414683   -0.765945
H     -2.268606    3.377106    0.121401
H     -3.923172    3.547370    0.733593
H     -3.256084    1.863484    0.539963
H     -4.962464    2.115648   -3.484700
H     -3.572478    3.067940   -4.138759
H     -3.553950    1.252273   -4.160597
H     -3.738584   -3.878688    3.606712
H     -4.954194   -3.910624    2.308357
H     -4.871144   -2.486938    3.370822
H      5.029233    4.468930    0.112014
H      5.425739    3.712035   -1.440372
H      3.783737    4.505482   -1.151196
H      2.896291   -3.881490    1.648118
H      3.041297   -4.392827   -0.053779
H      4.501104   -4.097326    0.914502
H     -5.476782   -0.980541   -0.960317
H     -6.835447   -2.009973   -0.392963
H     -5.954020   -0.953879    0.781644
H      1.299905    3.627771    1.858295
H      2.005011    4.625646    0.568568
H      2.173076    5.131827    2.279799
H     -4.773703    3.387432   -1.456887
H      0.395433   -0.359538    2.319373
H      0.656711   -2.016221    2.823607
H      5.185687   -1.291524   -1.507927
H      3.868100   -0.732390   -2.627587
H      0.178651    1.048019    0.462307
H      0.612837    1.059482   -1.240064
H      1.285040   -2.904449    0.866084
H      3.525681   -3.173845   -1.683993
H     -0.585808   -0.953913   -1.763649
H      3.127488   -1.604645    2.107889
