66

C     -6.005588   -0.538562    0.670102
C     -5.495281    0.873571    0.739236
C      5.046352   -1.062774   -0.996890
C      4.408030   -0.836531    1.404185
C      6.274417   -0.279470   -0.689230
C      5.347745    0.312572    1.621065
C     -0.345235    1.431110    0.918107
C      0.361105    0.856173   -1.389203
C     -1.551232    0.555523    0.784885
C     -1.139083    0.669291   -1.562535
C      3.134946    0.405689   -0.411874
C     -5.665369    2.177404   -1.213012
C     -5.122266   -2.318749    1.885878
C     -3.010480   -3.307701    1.716706
C     -4.277106    1.918537   -3.083225
C      3.924696   -0.809795    0.001049
C     -4.800244   -1.417192    0.893803
C     -4.951283    1.163873   -0.615931
C     -5.320495    2.577515   -2.500752
C     -4.255986   -3.274872    2.322396
C     -2.672224   -2.413504    0.723157
C      2.029396    0.759531    0.474536
C     -3.572883   -1.438986    0.288972
C     -3.892683    0.497173   -1.208978
C     -3.008226   -0.582947   -0.755764
C      7.741563    0.455064    1.133528
Br    -6.205220    3.947506   -3.444980
Br    -0.937269   -2.571986   -0.055483
Cl    -4.682468   -4.421878    3.597623
N      8.199443   -0.138491    2.180726
N     -3.603510    0.936737   -2.473494
N      0.695760    1.015526    0.007875
N     -1.669430   -0.138223   -0.475451
N      6.427719    0.153961    0.669795
O      2.213099    0.858685    1.708501
O      8.577831    1.375408    0.505845
H     -6.778643   -0.759528    1.407347
H     -6.334529   -0.768200   -0.376552
H     -4.765791    1.028309    1.548986
H     -6.378886    1.520293    0.944552
H      5.213401   -2.151030   -1.106248
H      4.659922   -0.714316   -1.990453
H      3.562444   -0.891707    2.098552
H      5.042799   -1.761888    1.495283
H      6.417389    0.617560   -1.354094
H      7.154820   -0.936860   -0.919447
H      4.895347    1.304677    1.582535
H      5.753563    0.186310    2.667275
H      0.008024    1.394743    1.981422
H     -0.550833    2.507884    0.639248
H      0.848167   -0.026802   -1.864131
H      0.711587    1.751782   -1.925026
H     -1.572263   -0.130863    1.660739
H     -2.473614    1.200344    0.967004
H     -1.322408    0.154831   -2.514035
H     -1.539827    1.677944   -1.634874
H      2.777221    0.175827   -1.462169
H      3.825559    1.285408   -0.585870
H     -6.490232    2.687773   -0.731616
H     -6.099387   -2.288982    2.359291
H     -2.324181   -4.075521    2.074165
H     -3.972990    2.201231   -4.096438
H      3.227010   -1.685960   -0.123108
H     -2.893207   -1.264726   -1.661012
H      7.611062   -0.829597    2.676825
H      9.589939    1.201874    0.424091
