73

C      2.798107   -3.658303    0.613991
C      2.786131   -2.185347   -2.934239
C      1.388199    4.929814   -2.679831
C     -4.641517   -3.704691   -1.670167
C     -1.523499    0.576178    4.116178
C      4.805993    4.474122   -1.474157
C     -5.643426    0.202696   -2.298346
C      2.787695   -3.484333   -0.860054
C     -0.589596    0.926202   -0.163566
C     -1.330185   -2.450862    1.980489
C      2.835905   -0.014544    1.546733
C      2.796880   -2.319707   -1.465898
C      1.492093    3.903121   -1.584099
C     -4.003604   -2.648317   -0.797433
C      0.494682    1.907899   -0.351425
C     -2.358703   -1.972571    1.023569
C     -0.803157    0.865483    1.333218
C     -0.987553   -1.447111    3.022928
C      1.658840    0.885858    1.553239
C      1.552009    1.876670    0.468867
C     -2.714887   -0.705375    0.925301
C     -2.075860    0.301323    1.791338
C      0.435047    2.901140   -1.381515
C     -2.979631   -3.008319    0.172312
C      2.611166    2.856960    0.292062
C     -3.737494   -0.352597   -0.043864
C      2.526376    3.871489   -0.777051
C     -4.366315   -1.381455   -0.901482
C      0.362604   -0.901135    2.678946
C      2.817793   -1.096188   -0.651008
N     -1.905191   -0.351223    3.093835
N      0.404048    0.240668    1.883603
O     -0.541589    2.991766   -2.202740
O     -2.628888   -4.222565    0.275507
O      3.643609    2.878344    1.048855
O     -4.133310    0.831987   -0.198025
O      1.363452   -1.475251    3.106841
O      2.828638    0.027475   -1.243845
O      3.537676    4.806771   -0.945571
O     -5.338002   -1.072458   -1.828000
O      2.826192   -1.118147    0.714222
H      3.727599   -3.228788    1.068998
H      1.889123   -3.221949    1.066273
H      2.820246   -4.754415    0.858436
H      3.606479   -1.454771   -3.189103
H      2.910558   -3.135559   -3.453515
H      1.846575   -1.679817   -3.267286
H      0.748243    4.524637   -3.477262
H      2.388199    5.175792   -3.096156
H      0.984521    5.865957   -2.245360
H     -4.023085   -4.603141   -1.635990
H     -5.617641   -3.934685   -1.193333
H     -4.778523   -3.277858   -2.683845
H     -2.023189    1.549265    3.930256
H     -1.909483    0.193489    5.082185
H     -0.415398    0.669069    4.116759
H      4.734692    4.057728   -2.505017
H      5.357565    5.439513   -1.583303
H      5.402498    3.835154   -0.794233
H     -6.485105    0.080209   -3.041579
H     -6.066337    0.869910   -1.511662
H     -4.827201    0.684818   -2.867772
H      2.771177   -4.387311   -1.482433
H     -0.191083   -0.090682   -0.451604
H     -1.478116    1.131679   -0.750841
H     -0.445442   -2.756878    1.360216
H     -1.685732   -3.370992    2.496779
H      3.718660    0.654560    1.220698
H      3.182328   -0.281943    2.595440
H     -0.728776    1.933434    1.698371
H     -0.908608   -1.877563    4.042237
H      1.833845    1.553946    2.490914
H     -2.789317    1.151725    2.013013
