78

C      1.264121    0.277569   -0.583244
C     -8.946317    0.087186    0.043733
C     -7.564526    2.728026   -0.150457
C      7.239176   -1.107005    0.627797
C      5.901480   -0.572412    1.019954
C      8.064700   -0.030205   -0.020186
C      5.032643   -1.648575    1.676076
C      8.315119    1.154058    0.878197
C      4.791393   -2.811073    0.750153
C     -6.237914   -0.724923   -0.345619
C     -6.554782   -0.031696    0.738139
C     -4.869640   -1.258437   -0.554320
C      9.165289    2.155399    0.099128
C      4.090896   -2.394351   -0.513684
C     -1.134674    0.101306    0.287164
C      0.457964   -1.746322    0.454205
C     -2.827552   -1.367127   -1.868324
C      0.207224   -0.522040    0.073827
C     -7.900335    0.531049    1.012458
C     -7.863254    2.045766    1.160759
C     -4.201276   -0.744817   -1.786743
C     -1.781860    0.519769   -1.012175
C      9.427442    3.332477    0.958288
C      1.736963   -2.393268    0.271481
C     -4.096983    0.757946   -1.778839
C     -3.110428    1.127241   -0.683945
O     -9.096096    2.474191    1.634088
O      8.966187    3.384427    2.132667
O     10.190676    4.386583    0.457330
O      1.924008   -3.601009    0.667211
O     -3.598128    1.246088   -2.968112
O     -3.035197    2.516686   -0.648528
O      2.835444   -1.808538   -0.318137
O     -1.808951   -0.457334   -1.965357
H      2.128427    0.346588    0.118216
H      1.583970   -0.265320   -1.495821
H      0.891010    1.303530   -0.836339
H     -9.094700   -1.009373    0.190692
H     -9.895159    0.579904    0.323341
H     -8.625032    0.306671   -0.975973
H     -8.074205    2.267376   -1.017136
H     -7.917912    3.785987   -0.082840
H     -6.481324    2.748763   -0.364752
H      7.770101   -1.387942    1.586761
H      7.201316   -2.031703    0.046432
H      5.994973    0.247296    1.762542
H      5.310474   -0.168286    0.176052
H      9.079306   -0.421216   -0.317442
H      7.606101    0.298784   -0.979913
H      5.443387   -1.974914    2.644193
H      4.066047   -1.147792    1.895314
H      8.884364    0.878198    1.778168
H      7.345320    1.615268    1.171934
H      4.147971   -3.526917    1.296991
H      5.728219   -3.353117    0.507930
H     -6.990961   -0.903971   -1.089967
H     -5.789519    0.144902    1.485412
H     -4.274349   -1.126580    0.361119
H     -4.981963   -2.371804   -0.684052
H     10.141351    1.702558   -0.138994
H      8.688541    2.461825   -0.846155
H      3.954073   -3.259254   -1.213687
H      4.708957   -1.650323   -1.079544
H     -1.786981   -0.547278    0.904317
H     -0.968786    1.032537    0.878552
H     -0.341229   -2.295949    0.930400
H     -2.813782   -1.978574   -2.811066
H     -2.662692   -2.127637   -1.052169
H     -8.200402    0.119273    2.019543
H     -7.087561    2.328391    1.888796
H     -4.846227   -1.016208   -2.657266
H     -1.130803    1.350289   -1.416762
H     -5.091956    1.192815   -1.550606
H     -3.491285    0.812788    0.314394
H     -9.719711    2.545632    0.879051
H     10.349387    5.163326    1.102815
H     -3.189636    0.586537   -3.554138
H     -2.549931    2.846513    0.156671
