74

C      5.085498   -2.244142   -0.855396
C     -3.765377    4.125494   -3.327815
C     -5.698370   -0.424820    1.805037
C     -0.223366   -5.077314    2.357773
C     -0.528852    2.280551    0.026913
C     -2.278609    2.447974   -1.686690
C     -3.101025   -1.133768    1.172628
C     -1.297150   -2.644077    1.335129
C     -2.672042   -0.223837   -1.756379
C     -1.247636    1.637031    2.290845
C      1.381776    0.024783    0.053511
C      5.421721   -0.840745   -0.432430
C     -1.507459    1.636007   -0.840344
C     -1.822593   -1.452687    0.839041
C     -0.212915    1.464642    1.228247
C     -1.721109    0.284703   -0.889556
C      0.083083    0.061890    0.833240
C     -3.435053    0.553203   -2.591129
C     -3.218812    1.922281   -2.541058
C     -3.860434   -1.959419    1.976406
C     -2.027084   -3.489208    2.139659
C     -0.941931   -0.610519   -0.011451
C      5.518069    0.051137   -1.637716
C     -3.341766   -3.138351    2.468700
C      5.370184    1.523852   -1.314104
C      4.307098    1.730492   -0.246640
C      3.581831    0.406445   -0.089287
O     -0.969842    0.876761    3.423225
O     -4.382860   -0.005134   -3.448867
O      6.784324   -0.080136   -2.236273
O     -4.080354   -3.989549    3.279111
O      5.042822    2.183595   -2.493659
O      3.498855    2.766996   -0.640548
O     -3.991911    2.731345   -3.388734
O     -5.186900   -1.646323    2.329647
O     -1.530790   -4.673436    2.646807
O      2.475534    0.478866    0.736966
O      4.506055   -0.455136    0.513616
H      5.841522   -2.942948   -0.454223
H      5.102927   -2.341956   -1.963876
H      4.074916   -2.545810   -0.506267
H     -4.353119    4.572639   -4.174011
H     -4.271996    4.471447   -2.396147
H     -2.698693    4.411697   -3.378757
H     -6.792178   -0.339191    1.989358
H     -5.101424    0.401187    2.200705
H     -5.587557   -0.387658    0.695972
H      0.518696   -4.259498    2.287483
H     -0.190468   -5.662013    1.408871
H      0.116452   -5.693591    3.225900
H      0.447735    2.491085   -0.503819
H     -0.846717    3.285502    0.382896
H     -2.110365    3.517573   -1.646762
H     -3.533477   -0.228307    0.811392
H     -0.283299   -2.903741    1.070582
H     -2.806884   -1.296743   -1.761024
H     -1.172541    2.716565    2.615876
H     -2.282453    1.498948    1.989618
H      1.561782   -1.039255   -0.202909
H      1.234300    0.654951   -0.846593
H      6.449045   -0.847987    0.032938
H      0.740287    1.883917    1.655822
H      0.269666   -0.501141    1.793558
H     -0.465018   -1.358381   -0.725433
H      4.792225   -0.266204   -2.414853
H      6.364751    1.887813   -0.990883
H      4.801945    1.955726    0.710646
H      3.275728    0.015212   -1.083998
H     -0.122362    1.150496    3.825970
H     -4.907847    0.639226   -4.024041
H      7.494331    0.322807   -1.661951
H     -3.650240   -4.839445    3.624530
H      4.317125    2.839437   -2.363185
H      3.760593    3.638191   -0.251813
