78

C     -0.141666   -2.537950    3.102271
C      7.873402    2.279376   -0.864794
C      7.072879    2.633642   -3.575669
C     -6.054208    0.878038   -0.546857
C     -4.518952    0.709642   -0.543892
C     -6.406791    2.295933   -0.313331
C     -4.116977   -0.714135   -0.791672
C     -7.809553    2.717830   -0.249379
C     -4.633937   -1.621438    0.278468
C      4.700849    2.043784    0.479830
C      5.662063    1.501661   -0.232147
C      3.885724    1.391353    1.480731
C     -8.707290    2.497239   -1.400200
C     -4.252363   -3.061959    0.051012
C      1.689741   -3.549057    1.630628
C     -0.622597   -3.386294    0.900417
C      3.211037   -0.539361    2.837593
C      0.286961   -3.163196    1.833647
C      6.383323    2.381535   -1.226264
C      6.218201    1.823102   -2.607608
C      4.107422   -0.079310    1.725680
C      2.699332   -2.477250    1.680494
C     -9.031291    1.112405   -1.710291
C     -2.034908   -3.068533    1.011216
C      3.819284   -0.793986    0.420917
C      2.434529   -1.445688    0.615411
O      4.886397    1.839731   -3.027478
O     -8.844149    0.185356   -0.913309
O     -9.584466    0.748487   -2.956602
O     -2.472539   -2.541748    2.058386
O      4.759482   -1.838597    0.290605
O      1.997663   -2.011723   -0.574838
O     -2.906816   -3.338391   -0.016540
O      2.872278   -1.850386    2.887646
H      0.740685   -2.439870    3.797856
H     -0.873250   -3.138120    3.678633
H     -0.571426   -1.521173    2.947972
H      8.108889    1.184452   -0.917730
H      8.484428    2.865342   -1.568123
H      7.962013    2.610809    0.187314
H      6.577394    2.712418   -4.547870
H      7.275820    3.614477   -3.104438
H      8.069113    2.120835   -3.625761
H     -6.439204    0.251170    0.250651
H     -6.382929    0.552291   -1.568133
H     -4.115016    1.034049    0.446495
H     -4.065820    1.344695   -1.331744
H     -5.879124    2.955497   -1.075238
H     -5.919848    2.641273    0.653279
H     -4.575842   -1.009508   -1.766636
H     -3.004244   -0.775210   -0.856770
H     -8.261637    2.205439    0.665211
H     -7.794390    3.833534    0.013120
H     -4.292496   -1.270986    1.265383
H     -5.752540   -1.580546    0.300577
H      4.492437    3.116607    0.293359
H      5.978104    0.476131   -0.138300
H      2.809743    1.618435    1.286200
H      4.069817    1.911210    2.476491
H     -8.363723    3.055335   -2.320940
H     -9.697820    3.008100   -1.177027
H     -4.791402   -3.651075    0.840908
H     -4.740321   -3.409924   -0.907643
H      1.770634   -4.026063    0.604625
H      1.928776   -4.399182    2.320617
H     -0.286280   -3.847381   -0.028325
H      3.726912   -0.281120    3.796396
H      2.290638    0.074218    2.818420
H      6.009734    3.406347   -1.201209
H      6.569144    0.775380   -2.631373
H      5.174635   -0.234088    1.950178
H      3.693473   -2.962650    1.442660
H      3.750435   -0.138930   -0.434864
H      1.749090   -0.688699    1.034355
H      4.809316    2.093529   -3.989253
H    -10.265410   -0.002745   -2.944127
H      5.511888   -1.740937    0.909383
H      2.097539   -1.363477   -1.320033
