72

C      7.679348   -0.422106   -0.563030
C      8.006733    0.627331    0.470735
C      7.222431    0.501102    1.725207
C      5.752339    0.600809    1.681456
C      5.081474    1.831659    1.259088
C      5.201413    2.343703   -0.122854
C      4.652167    1.409006   -1.185816
C      3.155482    1.182335   -0.924339
C      2.686631    0.259738   -2.006799
C      1.235158   -0.020583   -1.875466
C      0.943254   -0.675954   -0.551100
C     -0.571858   -0.932573   -0.548025
C     -0.894245   -1.589559    0.762333
C     -7.111666    2.631712    1.771265
C     -5.115876    3.111935    0.366439
C     -6.924171    1.343753    1.638123
C     -4.938694    1.830263    0.240442
C     -6.337946   -0.024246   -0.331414
C     -5.086472   -0.799015   -0.660862
C     -2.809667   -2.783423   -0.312920
C     -4.746112   -2.430602    1.099908
C     -6.232138    3.616161    1.152775
C     -4.101816   -3.426623    0.174779
C     -2.386340   -1.865424    0.820462
C     -5.801755    0.820832    0.846860
C     -4.475289   -1.006770    0.690317
O     -6.442974    4.851058    1.302129
O     -3.828162   -4.620599    0.854543
O     -3.133691   -0.716965    0.738689
O     -5.081611   -0.116998    1.589413
H      8.506996   -1.121652   -0.692646
H      6.777498   -1.011651   -0.285116
H      7.522029    0.108004   -1.534120
H      9.115234    0.456732    0.706173
H      7.994712    1.636031    0.031801
H      7.612280    1.293903    2.435002
H      7.512907   -0.481259    2.238878
H      5.398726   -0.307044    1.089324
H      5.327047    0.336870    2.717594
H      5.499351    2.671412    1.924436
H      3.968043    1.789238    1.489807
H      4.461645    3.231479   -0.170378
H      6.149519    2.773743   -0.426283
H      4.806354    1.898065   -2.163983
H      5.097931    0.419361   -1.210890
H      2.596570    2.127976   -0.847743
H      3.043848    0.661421    0.064415
H      3.299162   -0.679768   -1.900652
H      2.907993    0.651390   -3.025721
H      0.877659   -0.687700   -2.702922
H      0.603354    0.897568   -1.960056
H      1.181102    0.061812    0.255744
H      1.457786   -1.632438   -0.435018
H     -1.140504   -0.000603   -0.626020
H     -0.836625   -1.588045   -1.390783
H     -0.611589   -0.964744    1.617120
H     -0.398017   -2.585252    0.862420
H     -7.966665    2.980905    2.374364
H     -4.448258    3.852621   -0.102636
H     -7.605419    0.661637    2.117551
H     -4.084495    1.498217   -0.358933
H     -6.656569    0.649663   -1.142814
H     -7.114654   -0.718265    0.002015
H     -4.441972   -0.224119   -1.357553
H     -5.349575   -1.763413   -1.179081
H     -3.012053   -2.239763   -1.251772
H     -1.999458   -3.554986   -0.450019
H     -5.862992   -2.636357    1.013294
H     -4.500157   -2.597695    2.173672
H     -4.748988   -3.608123   -0.702462
H     -2.544120   -2.432483    1.765725
H     -3.991584   -5.352651    0.180533
