53

C     -3.574224    2.609271   -2.186780
C     -3.755487   -3.711689    1.380119
C     -6.658286   -0.773524   -0.989937
C      4.130749    0.066422    1.211881
C      5.343051   -0.599248    1.151850
C      4.362555    0.525528   -1.087646
C     -2.444303    0.848039   -0.258963
C     -2.529195   -1.212924    0.883578
C      0.352933    2.293259    1.219220
C      0.645637    0.085366   -0.716721
C      7.758887   -0.726652   -1.548669
C      3.609575    0.646801    0.089770
C     -1.906999   -0.005519    0.667113
C      1.434754    1.227066    1.181143
C      0.596275    0.032710    0.759217
C      6.083898   -0.720656    0.001583
C      5.566974   -0.138812   -1.135638
C     -3.602612    0.484965   -0.962320
C     -3.665712   -1.587265    0.204110
C      2.342502    1.376488    0.016831
C     -0.704605    0.345756    1.409568
C     -4.212204   -0.737263   -0.727220
O     -4.130156    1.355507   -1.890710
O     -4.275127   -2.802898    0.435517
O     -5.364132   -1.078479   -1.438365
O      1.631820    0.974725   -1.113711
O     -0.686436    1.657164    1.859372
O      7.305663   -1.322634   -0.327638
O      6.493209   -0.401376   -2.141587
H     -3.408197    3.212889   -1.263294
H     -4.256094    3.150068   -2.878610
H     -2.616412    2.458693   -2.756537
H     -4.433160   -4.574018    1.456034
H     -3.619580   -3.251587    2.376129
H     -2.753979   -4.039227    0.993994
H     -7.312606   -1.622091   -1.255884
H     -6.711564   -0.616997    0.103937
H     -7.078895    0.146454   -1.453852
H      3.571145    0.142227    2.141302
H      5.717217   -1.043217    2.064029
H      3.976129    0.978040   -2.006224
H     -2.039483    1.817982   -0.506413
H     -2.126618   -1.906416    1.609175
H      0.697556    3.195634    1.772188
H      0.118399    2.520605    0.175167
H     -0.268617    0.326330   -1.250258
H      0.979423   -0.927476   -1.085212
H      8.239264    0.235695   -1.316928
H      8.346260   -1.409415   -2.160584
H      1.866222    1.167582    2.165381
H      1.118378   -0.863165    1.187861
H      2.542259    2.472779   -0.121276
H     -0.696050   -0.281495    2.379308
