48

C     -0.498963   -3.754353    0.741557
C      1.470659   -2.227538   -0.781867
C     -1.753982    3.308883    0.572099
C     -3.194457   -1.042432   -1.743825
C      3.076466   -0.744497    1.326708
C     -3.555190    0.019118   -2.536972
C      4.103959    0.184353    1.266429
C     -2.187024   -1.971789    0.295238
C      0.631325   -1.234305    1.340038
C     -2.254728    0.497311   -0.103876
C      1.547831    1.073637    1.186804
C      3.918478    3.753149    0.553088
C     -0.863882   -2.551709   -0.062748
C      0.267588   -1.569388   -0.110023
C     -2.545152   -0.788716   -0.530671
C      1.782817   -0.298872    1.286744
C     -3.277498    1.309387   -2.135465
C      3.849833    1.532694    1.167908
C     -2.627655    1.537312   -0.918573
C      2.553402    2.005904    1.126087
O     -3.641229    2.380010   -2.934961
O     -2.385506    2.840018   -0.585561
O      4.671766    2.673086    1.090854
O      2.611763    3.388773    1.027177
H      0.570599   -3.936288    0.872379
H     -0.917452   -3.590233    1.776102
H     -1.026052   -4.683318    0.387423
H      2.125234   -1.466083   -1.252073
H      1.060535   -2.817801   -1.655030
H      1.985470   -2.956323   -0.157731
H     -0.708474    3.647251    0.297682
H     -1.609179    2.570722    1.373364
H     -2.235538    4.243077    0.951890
H     -3.392894   -2.077496   -2.019736
H      3.330427   -1.792572    1.407681
H     -4.063571   -0.187364   -3.485344
H      5.126413   -0.150243    1.296315
H     -2.276804   -1.670949    1.350465
H     -2.964538   -2.777329    0.154887
H      0.950407   -2.185724    1.834655
H     -0.189967   -0.743895    1.881430
H     -1.750199    0.659934    0.854481
H      0.498820    1.387461    1.157461
H      3.920909    3.760311   -0.551218
H      4.202729    4.699736    1.020487
H     -0.958311   -2.929459   -1.137268
H      0.062775   -0.641377   -0.638426
H     -3.441961    3.317924   -2.644228
