53

C     -4.494812   -3.314855    0.952030
C     -3.362529    3.697697   -0.346193
C     -5.700090    0.923297    2.625252
C      4.002276   -1.551933   -0.413801
C      5.160578   -1.987017    0.229878
C      4.615066    0.685716   -0.106434
C     -2.954419   -1.246383   -0.085812
C     -2.565585    1.037647   -0.519616
C      0.643879   -0.228405   -2.837780
C      0.652328    1.220966   -0.428853
C      7.603898    0.078648    1.911157
C      3.691971   -0.244842   -0.602233
C     -2.132220   -0.262209   -0.628090
C      1.417796   -0.616067   -1.595556
C      0.373318   -0.264016   -0.518041
C      6.050563   -1.056074    0.707449
C      5.764393    0.275721    0.531966
C     -4.150533   -0.980937    0.537673
C     -3.769729    1.375661    0.101214
C      2.513493    0.306411   -1.257914
C     -0.878198   -0.601791   -1.280187
C     -4.526586    0.350889    0.612029
O     -4.957575   -1.985457    1.073705
O     -4.190951    2.690781    0.201728
O     -5.726015    0.666341    1.232494
O      2.038768    1.347106   -0.466578
O     -0.646355    0.090950   -2.472842
O      7.259559   -1.185590    1.374938
O      6.844404    0.963987    1.117438
H     -5.260221   -4.054351    1.264565
H     -4.259208   -3.573716   -0.117775
H     -3.602799   -3.511180    1.577976
H     -2.330409    3.652886    0.061282
H     -3.814538    4.705490   -0.251188
H     -3.237109    3.535512   -1.456647
H     -6.577887    1.545388    2.939043
H     -5.717262   -0.020704    3.225121
H     -4.805491    1.517761    2.913157
H      3.334990   -2.292687   -0.771414
H      5.350138   -3.044380    0.348466
H      4.459623    1.745998   -0.206286
H     -2.655237   -2.302214   -0.145335
H     -2.009452    1.882008   -0.906516
H      0.636330   -1.026067   -3.591392
H      1.179564    0.644871   -3.304191
H      0.294961    1.678397   -1.379043
H      0.190082    1.705942    0.434702
H      7.383990    0.148640    2.976422
H      8.672501    0.284469    1.692050
H      1.619334   -1.676280   -1.650122
H      0.524098   -0.813747    0.405905
H      2.868772    0.783041   -2.219797
H     -0.821466   -1.701318   -1.488002
