41

C     -3.144842    0.946124    1.188091
C     -2.970600    1.947211   -2.502069
C      2.565977    2.950079    1.464431
C      5.017290   -2.707930   -0.596810
C     -2.607524   -1.424576    1.278115
C     -3.122871   -0.900425   -1.204218
C     -1.993166   -0.038197    1.176739
C     -3.150961   -1.810735   -0.061544
C     -2.156074    0.005776   -1.234242
C      1.113855    0.391384    0.029340
C      3.466358    0.022977    0.376653
C      1.942535   -1.846406    0.177788
C      2.407156    0.895234    0.211525
C      0.876934   -0.966934    0.011645
C      3.220104   -1.333725    0.357580
C     -0.185662    1.024120   -0.167872
C     -1.209764   -0.005662   -0.103221
Cl     5.107530    0.565894    0.609173
Cl     1.620880   -3.569294    0.152183
O     -3.649924   -2.963859   -0.204618
O     -0.281537    2.278162   -0.356247
O     -2.057283    0.912431   -2.288700
O      2.634064    2.265442    0.227597
O      4.266818   -2.211223    0.520923
O     -0.473559   -1.212264   -0.182047
H     -3.915835    0.531235    1.902185
H     -2.846407    1.918143    1.631975
H     -3.647846    1.041233    0.219757
H     -3.988743    1.516906   -2.656805
H     -2.657931    2.521359   -3.383794
H     -3.060750    2.641083   -1.636308
H      2.330493    4.014389    1.248330
H      3.570513    2.927989    1.974833
H      1.786425    2.459532    2.069966
H      4.343586   -2.830252   -1.492847
H      5.761287   -1.917031   -0.857572
H      5.489460   -3.675612   -0.353096
H     -1.782293   -2.123960    1.500715
H     -3.397847   -1.462669    2.054636
H     -3.862885   -0.962953   -1.996445
H     -1.356957    0.187002    2.045393
