41

C     -0.408735   -1.369369   -2.010610
C     -3.837217   -0.065037    2.939952
C      1.772684    3.072564   -1.470126
C      5.150339   -1.844731   -0.105591
C     -2.293253    0.288428   -2.031419
C     -3.707224    0.217795    0.093801
C     -1.636904   -0.864119   -1.313251
C     -3.547264    0.592298   -1.305186
C     -2.669292   -0.279633    0.788638
C      0.737896    0.497970    0.342904
C      3.099510    0.669683    0.401811
C      2.021292   -1.414945    0.858858
C      1.876969    1.274545    0.203973
C      0.757664   -0.840923    0.666751
C      3.169703   -0.667962    0.727440
C     -0.670465    0.870954    0.191968
C     -1.378539   -0.434115    0.103706
Cl     4.549471    1.664832    0.223366
Cl     2.116545   -3.115697    1.273122
O     -4.479554    1.174549   -1.891666
O     -1.089703    2.045919    0.155946
O     -2.842510   -0.624032    2.099249
O      1.776858    2.628517   -0.126886
O      4.405156   -1.245558    0.919217
O     -0.528849   -1.371326    0.740273
H     -0.712564   -1.703866   -3.021833
H     -0.066300   -2.271740   -1.472778
H      0.388059   -0.616405   -2.009802
H     -4.861624   -0.245846    2.561013
H     -3.769533   -0.488394    3.961124
H     -3.674038    1.044832    3.064596
H      1.956958    4.161505   -1.481509
H      2.575898    2.600957   -2.072887
H      0.814249    2.782143   -1.931156
H      4.739640   -2.840898   -0.347060
H      6.190047   -1.981668    0.279720
H      5.205881   -1.186830   -1.000968
H     -2.466860    0.072890   -3.104539
H     -1.611542    1.167450   -1.941987
H     -4.658679    0.331082    0.600840
H     -2.394167   -1.685821   -1.270705
