53

C     -4.696044   -2.144275   -0.471662
C     -2.298569   -2.906275   -0.185577
C      3.374863   -2.596195    0.455127
C      4.819489   -1.449165   -1.359460
C      1.280081    3.263426    1.421598
C     -1.114288    0.928998   -2.920323
C     -1.695920    0.965652   -1.672072
C     -3.099545   -0.811527    0.783133
C      3.301864   -0.183801    0.033315
C     -1.792196   -0.493043    1.363169
C     -2.104132    1.995162    1.262550
C      2.299185    0.070008    1.063099
C     -1.091515    3.124843    1.038793
C      1.052581    0.655371   -1.914472
C     -3.337655   -1.892818    0.085211
C      3.802311   -1.368450   -0.262708
C      0.248766    0.774067   -3.040821
C     -0.918274    0.848726   -0.535351
C      0.452485    0.695588   -0.646246
C      0.072401    1.164525    1.548927
C     -1.229619    0.819850    0.906647
Br     1.043817    0.716357   -4.774551
N      0.069495    2.569876    1.647470
N      1.042514    0.607595    0.634711
H     -5.485364   -1.698544    0.142931
H     -4.742469   -1.744860   -1.521088
H     -4.876173   -3.255742   -0.552080
H     -2.748542   -3.853568   -0.601502
H     -1.562510   -2.550857   -0.945046
H     -1.736079   -3.132256    0.743549
H      2.288971   -2.642142    0.642597
H      3.937616   -2.722268    1.417871
H      3.600834   -3.487089   -0.198518
H      5.527116   -2.288959   -1.236791
H      4.286826   -1.519267   -2.321547
H      5.363303   -0.474002   -1.369823
H      1.078737    4.351363    1.662328
H      1.658695    3.276133    0.398142
H      2.033048    2.951836    2.152265
H     -1.689274    1.019088   -3.820640
H     -2.748052    1.088559   -1.550817
H     -3.908678   -0.108313    0.944210
H      3.677627    0.702433   -0.502133
H     -1.036738   -1.265961    1.129928
H     -1.897692   -0.477807    2.464210
H     -2.990061    2.115241    0.631105
H     -2.305164    1.961194    2.349766
H      2.179399   -0.886337    1.636778
H      2.806936    0.741617    1.825057
H     -1.455910    4.026312    1.564204
H     -1.010160    3.271738   -0.051029
H      2.102776    0.523375   -2.065043
H      0.168889    0.724588    2.570611
