49

C     -1.745780    2.999248   -0.920707
C     -3.996938   -0.927022    2.260105
C     -4.394535   -0.576621   -0.167699
C      5.021574    1.351785    3.031853
C      3.765776    0.775975    3.114220
C      5.550046    1.564293    1.789933
C      3.087960    0.436002    1.976882
C      4.845606    1.211666    0.636240
C      0.434123   -0.922045   -3.568644
C     -0.795044   -1.480872   -3.294452
C      3.275793    0.430927   -1.729671
C     -1.758194    1.890926    0.047382
C      3.607400    0.643382    0.695577
C      1.259809   -0.516062   -2.513385
C      2.486150    0.041165   -2.799694
C     -1.224269   -1.646298   -1.994832
C      2.798181    0.242678   -0.452709
C     -0.423859   -1.252121   -0.946673
C     -1.152602   -1.556533    0.305741
C      0.825223   -0.683959   -1.213957
C     -2.067035   -0.446319    0.736772
C     -2.152079   -2.614748   -0.156999
C     -3.400159   -1.115530    0.861213
O     -1.452880    2.168889    1.250189
O      2.898635    0.202238   -3.963556
O     -2.071068    0.585215   -0.238817
O      1.597984   -0.304247   -0.236396
O     -2.420084   -2.183804   -1.478598
O     -3.215706   -2.476006    0.695188
H     -0.714647    3.261200   -1.177953
H     -2.221652    3.914431   -0.480512
H     -2.374376    2.755722   -1.813926
H     -3.660541    0.018548    2.711085
H     -3.627262   -1.737367    2.953360
H     -5.089846   -1.028016    2.182545
H     -5.189229    0.003973    0.366923
H     -4.872190   -1.425103   -0.679783
H     -3.905414    0.048639   -0.923507
H      5.549695    1.617590    3.955022
H      3.368896    0.618029    4.113746
H      6.517885    2.007201    1.691435
H      2.104596   -0.013876    2.082383
H      5.285252    1.389990   -0.334802
H      0.803418   -0.776945   -4.574506
H     -1.434357   -1.795669   -4.129710
H      4.260222    0.879443   -1.910427
H     -0.499212   -1.935288    1.102949
H     -1.776639   -0.017627    1.728492
H     -1.708628   -3.627077   -0.129157
