50

C     -0.595280    0.726427    2.099728
C      5.763691   -1.357914    0.110004
C     -4.328835    2.280369   -0.005611
C      5.352596   -1.628460    1.396819
C     -5.144529    1.196165    0.259485
C      4.957819   -0.694982   -0.781814
C     -2.982262    2.090890   -0.215108
C      4.094755   -1.206250    1.757436
C     -4.636277   -0.077088    0.318777
C     -0.531610    0.611769   -1.671648
C     -1.237630   -3.373963   -0.502506
C      3.698214   -0.286366   -0.380088
C     -2.465220    0.820961   -0.157548
C      3.241427   -0.532446    0.893668
C     -3.287855   -0.280734    0.110448
C      0.719128    1.468435   -1.615251
C     -2.516199   -2.896077    0.148106
C      0.406385    2.692572   -0.780319
C      2.856814    0.389836   -1.264516
C      1.236551    0.495876    0.450213
C     -1.099557   -1.142265    0.027023
C     -0.152339    0.987926    0.708388
C     -1.073754    0.290568   -0.328027
N     -0.720937   -2.077735   -1.017316
N      2.002449   -0.146250    1.332763
N     -0.166718    2.390973    0.348855
N     -2.526556   -1.478812    0.110336
N      1.675055    0.742612   -0.799880
O     -3.442458   -3.604382    0.651395
O      0.710862    3.947592   -1.207773
O      3.261368    0.622337   -2.433612
H      0.117712    0.036403    2.624682
H     -0.641918    1.675826    2.683560
H     -1.589298    0.258239    2.185585
H      6.759444   -1.678145   -0.215535
H     -4.783151    3.276700   -0.042392
H      6.005505   -2.161316    2.107250
H     -6.203559    1.367291    0.421818
H      5.252134   -0.466898   -1.801472
H     -2.395763    2.964631   -0.416942
H      3.727293   -1.398251    2.765095
H     -5.244918   -0.945139    0.523391
H     -1.269658    1.085472   -2.352124
H     -0.191233   -0.342977   -2.161311
H     -0.552566   -3.822611    0.213683
H     -1.539567   -4.011762   -1.344650
H      1.090337    1.742191   -2.597287
H     -0.573090   -1.402104    0.976818
H     -1.399538   -1.885099   -1.821002
H      0.362735    4.735967   -0.669427
