49

C     -1.088026    1.266825    2.355091
C     -4.043391   -0.720621   -0.875852
C     -3.945345    1.257420   -2.294035
C      4.481220    3.530399    1.004891
C      4.880909    2.532778    1.866548
C      3.424214    3.297700    0.144303
C      4.220629    1.296750    1.867702
C      2.792835    2.086759    0.159738
C      0.274248   -3.686854    0.687384
C     -0.762075   -3.807380   -0.209356
C      2.777279   -1.215087    1.776299
C     -1.247396    1.313482    0.879954
C      3.174851    1.074048    1.012542
C      1.027926   -2.516565    0.804835
C      2.060457   -2.419051    1.709483
C     -1.052835   -2.718769   -1.015320
C      2.430339   -0.186124    0.947921
C     -0.314659   -1.560594   -0.906255
C     -0.885643   -0.617792   -1.900479
C      0.723044   -1.444149   -0.006196
C     -1.825896    0.379137   -1.275839
C     -1.768046   -1.429532   -2.772686
C     -3.149042    0.047877   -1.830100
O     -0.956806    2.369592    0.262178
O      2.353631   -3.385069    2.457158
O     -1.698253    0.269504    0.115129
O      1.435810   -0.351625    0.111921
O     -2.036159   -2.577395   -1.992268
O     -2.961675   -0.760024   -2.946581
H     -1.123655    0.245143    2.749297
H     -0.146260    1.793252    2.678336
H     -1.915716    1.864455    2.789988
H     -4.968445   -0.162513   -0.620101
H     -3.519447   -0.965014    0.075278
H     -4.379482   -1.690664   -1.298615
H     -4.680243    0.984933   -3.088664
H     -3.298856    2.038349   -2.738227
H     -4.575018    1.667415   -1.453736
H      4.972661    4.493370    0.982785
H      5.694605    2.660093    2.554634
H      3.138968    4.117494   -0.523905
H      4.554246    0.534893    2.551921
H      1.972862    1.915874   -0.512638
H      0.535909   -4.512435    1.336589
H     -1.324442   -4.723676   -0.275720
H      3.593432   -1.167943    2.506144
H     -0.052337   -0.114107   -2.458509
H     -1.523464    1.387422   -1.655708
H     -1.277461   -1.691982   -3.737259
