53

C     -3.741462   -2.689627   -0.178303
C     -5.455852   -0.935167    0.522180
C      3.491126   -2.744632    1.333586
C      5.456428   -1.478758    0.283742
C      1.889772    1.095113   -2.152923
C     -1.228021    3.809208    0.521940
C     -1.663825    2.623543   -0.005562
C     -3.082876   -0.459210    0.652380
C      3.384200   -0.347121    0.921752
C     -1.652275   -0.802489    0.494068
C     -1.547651    0.166660   -1.836076
C      2.031643   -0.189724    1.449933
C     -0.406791    0.873662   -2.535833
C      0.865958    2.804620    1.128237
C     -4.036199   -1.315862    0.347556
C      4.067860   -1.462742    0.851790
C      0.029530    3.898110    1.085267
C     -0.847876    1.524401    0.027102
C      0.437955    1.598666    0.598255
C      0.491111   -0.270696   -0.686466
C     -0.986296    0.128553   -0.439198
Br     0.622246    5.557716    1.817715
N      0.757892    0.309034   -1.918524
N      1.067150    0.314229    0.502308
H     -3.165018   -2.585265   -1.120634
H     -4.671082   -3.241027   -0.392339
H     -3.111117   -3.189000    0.595617
H     -5.588875    0.103337    0.862261
H     -6.082298   -1.125112   -0.370541
H     -5.854173   -1.591543    1.345989
H      2.674401   -3.089576    0.675059
H      4.255521   -3.557742    1.312733
H      3.131151   -2.582567    2.365077
H      6.104009   -2.035761    1.015623
H      5.841888   -0.433531    0.213415
H      5.492654   -1.916537   -0.727097
H      2.363633    0.748434   -3.119892
H      1.575560    2.157052   -2.389125
H      2.665628    1.177767   -1.410208
H     -1.855026    4.716256    0.514293
H     -2.633769    2.556799   -0.439246
H     -3.343124    0.515041    1.025545
H      3.866712    0.578034    0.552650
H     -1.607429   -1.846123    0.081383
H     -1.179907   -0.825123    1.502506
H     -2.479910    0.785371   -1.869642
H     -1.706112   -0.839204   -2.276787
H      2.096670    0.483804    2.329344
H      1.734048   -1.198279    1.847987
H     -0.438737    1.950950   -2.236143
H     -0.433641    0.758604   -3.629778
H      1.869776    2.883364    1.580924
H      0.534819   -1.365904   -0.623902
