28

C      3.769764    1.423501   -0.617274
C      1.492468   -0.861719    0.846664
C     -0.796943    0.456562   -1.701074
C      1.005433   -0.806914   -0.607114
C      2.527793    0.685934   -0.206000
C     -2.460821    0.280385   -0.259036
C     -3.639641    0.322540    0.457670
C     -1.341244   -0.390139    0.211742
C     -2.546233   -0.977805    2.096317
F     -2.627680   -1.601585    3.290389
N     -4.786472    1.007952   -0.021979
N     -2.090562    0.792522   -1.443653
N     -3.647446   -0.325119    1.645753
N     -1.406757   -1.014733    1.396553
N     -0.336192   -0.276497   -0.672500
O      4.676004    0.623724   -1.278987
O      2.809513   -0.383178    0.656304
O      1.871636    0.080968   -1.244272
H      4.242368    1.818781    0.314739
H      3.474351    2.282784   -1.225394
H      1.468769   -1.874167    1.244444
H      0.967997   -0.108055    1.473710
H     -0.309291    0.774851   -2.610707
H      1.093513   -1.810796   -1.077970
H      1.856065    1.358019    0.332923
H     -5.411342    1.518947    0.649015
H     -5.062141    1.042125   -1.022455
H      5.207089    0.099401   -0.627809
