39

C     -2.255179    0.950978   -2.058181
C     -0.411173    4.149605    1.707516
C     -3.974234   -2.591397    0.933207
C      4.671553   -1.713948    0.840275
C     -4.480283   -1.607300    0.124444
C     -2.624020   -2.609114    1.183926
C      5.243277   -0.828367   -0.060644
C      3.327652   -1.759539    1.108293
C     -3.624005   -0.647567   -0.427992
C     -1.770451   -1.647884    0.630184
C      4.407434    0.042150   -0.710143
C      2.509510   -0.870507    0.438607
C     -2.256182   -0.655107   -0.182690
C      3.033330    0.022405   -0.460857
C     -0.166913   -0.024075   -1.369754
C      0.068739    1.813040   -0.076846
C     -1.455711    0.397148   -0.843315
N     -1.177404    1.544508   -0.042931
N      2.192129    0.938139   -1.151431
N      0.800248    0.893782   -0.888325
O      0.139172   -0.997524   -2.113585
S      0.826333    3.198800    0.805414
H     -2.746054    0.094085   -2.538036
H     -2.950869    1.695136   -1.646939
H     -1.509020    1.399268   -2.741044
H      0.018564    5.119398    1.998125
H     -0.769995    3.532266    2.570367
H     -1.295865    4.243187    1.034496
H     -4.620287   -3.350233    1.375246
H      5.337558   -2.401311    1.348896
H     -5.550740   -1.598259   -0.069601
H     -2.225465   -3.380875    1.814859
H      6.327887   -0.840214   -0.231595
H      2.893557   -2.460369    1.817235
H     -4.073382    0.095185   -1.043421
H     -0.723862   -1.658743    0.822168
H      4.847392    0.738908   -1.417713
H      1.447526   -0.855550    0.607803
H      2.569234    1.629895   -1.834047
