55

C      3.918185   -1.421305   -0.470791
C     -0.042598    3.092454   -0.980768
C     -4.401230    0.774879   -0.791377
C     -3.701774   -1.535519   -0.634424
C     -0.447307   -1.468523    0.039562
C     -2.553615   -0.634058    2.189983
C      2.211499   -0.261362    1.124627
C     -0.506470    1.010142   -2.237788
C      1.594556    0.535314    0.018367
C     -1.759975    0.230791   -1.941436
C      4.655838   -0.228872    1.475708
C     -3.680407   -0.065569    1.349287
C     -1.240500   -0.035151    1.837327
C      6.063577   -0.572150    1.114465
C      3.616444   -0.614831    0.747273
C     -0.122898    1.794263   -1.046515
C      0.201638    0.987471    0.196639
C     -2.057617    0.379189   -0.432625
C     -3.385206   -0.162496   -0.106099
C     -0.866364   -0.072946    0.374820
O      6.794814    0.591068    0.917526
H      4.536449   -0.791764   -1.154521
H      3.009906   -1.743856   -0.998932
H      4.457790   -2.324873   -0.128545
H      0.244896    3.582589   -0.072060
H     -0.266361    3.690008   -1.846649
H     -3.996669    1.808723   -0.851853
H     -5.376049    0.724937   -0.284716
H     -4.546539    0.395062   -1.824289
H     -3.364968   -2.355125    0.048822
H     -3.450017   -1.685100   -1.682244
H     -4.831599   -1.615471   -0.590727
H     -0.337902   -2.102386    0.939983
H     -1.132265   -1.949022   -0.707387
H      0.528818   -1.451361   -0.461596
H     -2.777496   -0.348905    3.238473
H     -2.539604   -1.725633    2.140914
H      1.665954   -1.091228    1.532894
H      2.320593    0.474756    1.987036
H      0.303313    0.338206   -2.587184
H     -0.677804    1.725712   -3.093197
H      2.303270    1.432239   -0.081765
H      1.718473    0.054430   -0.982087
H     -1.724140   -0.802180   -2.269205
H     -2.620198    0.736450   -2.446155
H      4.502977    0.351941    2.360902
H     -4.588705   -0.689674    1.559107
H     -3.945019    0.966883    1.661206
H     -1.106145    0.993643    2.258543
H     -0.462260   -0.644451    2.383945
H      6.498474   -1.218051    1.916400
H      6.121019   -1.151899    0.165796
H      0.195382    1.688072    1.079422
H     -2.106853    1.476875   -0.286707
H      7.152689    0.927664    1.780379
