39

C      2.833699   -1.128773    1.697632
C     -1.915815   -3.563339   -1.192825
C      3.810502    2.776933   -1.299622
C     -4.378525    1.737906   -0.516690
C      3.237544    2.915521   -0.065704
C      3.762509    1.536100   -1.914683
C     -3.020038    1.899455   -0.740985
C     -4.837856    0.624685    0.141752
C      2.616710    1.829348    0.561843
C      3.140249    0.455900   -1.282208
C     -2.140761    0.913286   -0.286284
C     -3.945622   -0.325523    0.575542
C      2.567631    0.603284   -0.042275
C     -2.568399   -0.210041    0.374198
C      0.606593   -0.218849    1.193589
C      0.424525   -1.926626   -0.291910
C      1.925709   -0.534535    0.609737
N      1.656733   -1.607941   -0.291101
N     -1.694089   -1.227810    0.831401
N     -0.320035   -1.117163    0.604841
O      0.288057    0.657916    2.049557
S     -0.168905   -3.248724   -1.335251
H      2.208286   -1.919260    2.178419
H      3.678657   -1.597913    1.165837
H      3.113637   -0.308577    2.364520
H     -2.552470   -2.698517   -1.017582
H     -2.260208   -3.985811   -2.184977
H     -2.148653   -4.391476   -0.460537
H      4.304358    3.582133   -1.830131
H     -5.040690    2.511641   -0.875467
H      3.285513    3.889202    0.394189
H      4.212304    1.412758   -2.888531
H     -2.615702    2.760837   -1.256132
H     -5.902387    0.536722    0.294845
H      2.198166    2.040140    1.527735
H      3.143431   -0.478597   -1.823467
H     -1.078271    1.063560   -0.474827
H     -4.314398   -1.215539    1.101428
H     -2.111989   -2.042312    1.329664
