40

C     -1.900755   -1.928080   -0.550740
C     -2.559762   -0.571528    1.349527
C      0.710307    0.866031   -1.653137
C     -2.142924    1.835657   -0.233959
C     -2.383900    0.475718   -0.819020
C     -0.694341    2.185346   -0.126958
C      3.663283    0.228274   -0.074461
C      1.500507    1.414329    0.563829
C      0.636545   -1.392884   -0.004676
C      2.428118    0.262635    0.336774
C     -0.285136   -0.236802    0.366943
C      4.091382   -1.161613   -0.127594
C     -1.718692   -0.540624    0.077601
C      0.230045    1.017486   -0.225894
C      1.979909   -1.117685    0.638463
O      5.255598   -1.545170   -0.487407
O      1.835181   -1.272714    2.047126
O      3.023916   -1.930515    0.273364
H     -1.250030   -2.088779   -1.406063
H     -2.970920   -1.969869   -0.875623
H     -1.804592   -2.684640    0.257562
H     -3.629100   -0.371757    1.138068
H     -2.191216    0.240001    2.037124
H     -2.385590   -1.534432    1.856111
H      0.509328    1.811410   -2.196365
H      0.211207    0.049571   -2.196068
H      1.800738    0.669659   -1.718575
H     -2.717185    2.571953   -0.854805
H     -2.593383    1.859247    0.783159
H     -3.492721    0.283739   -0.726203
H     -2.144285    0.374459   -1.871875
H     -0.436468    2.902892   -0.934827
H     -0.511728    2.729963    0.843629
H      4.294412    1.096110   -0.342036
H      1.228397    1.419383    1.627506
H      1.859433    2.349805    0.144701
H      0.216844   -2.292608    0.488536
H      0.698416   -1.586431   -1.071464
H     -0.183257   -0.145792    1.489581
H      1.822420   -2.271744    2.178148
