48

C     -0.410338    1.931470    0.524197
C      0.026488   -1.561224   -1.041397
C      5.055715   -0.955352   -1.724294
C      2.629346    1.893756    1.546329
C     -3.020799   -1.797390   -1.252680
C      3.801017    2.534138    1.319519
C     -4.040854   -2.457027   -0.584236
C      1.011917    0.017068    1.208533
C     -1.587474    0.179221   -1.637710
C      3.199515    0.178919    0.076702
C     -3.379782    0.084408    0.118135
C     -6.275713   -1.130613    1.944981
C     -0.162200    0.438568    0.355501
C     -0.209241   -0.072289   -1.016447
C      2.272439    0.697370    0.943598
C     -2.676002   -0.496704   -0.899450
C      4.708315    1.984016    0.442084
C     -4.728022   -1.838266    0.437233
C      4.423510    0.815548   -0.182125
C     -4.406828   -0.554068    0.804982
O      5.916067    2.653818    0.214609
O      5.355215    0.281371   -1.062536
O     -5.772871   -2.266940    1.254718
O     -5.238983   -0.161516    1.850228
H     -1.204183    2.333401   -0.119230
H     -0.730567    2.159777    1.573604
H      0.517365    2.512371    0.261510
H      1.071815   -1.767521   -0.824118
H     -0.150620   -1.934834   -2.082852
H     -0.593208   -2.099653   -0.303026
H      4.987047   -1.733897   -0.939665
H      4.132714   -0.891542   -2.310116
H      5.886066   -1.246571   -2.387382
H      1.916007    2.321596    2.233065
H     -2.499992   -2.311771   -2.055004
H      4.010592    3.466561    1.827679
H     -4.277595   -3.468432   -0.890226
H      1.148284   -1.069785    1.058365
H      0.682380    0.119323    2.275754
H     -1.564747   -0.216458   -2.701781
H     -1.732594    1.269579   -1.698384
H      3.083747   -0.746839   -0.470804
H     -3.157540    1.084067    0.426920
H     -7.171886   -0.722586    1.466704
H     -6.412783   -1.336608    3.016503
H     -1.055289   -0.032122    0.882391
H      0.507241    0.393197   -1.727001
H      6.117308    3.520463    0.683157
