40

C     -1.884091   -1.172071    1.455033
C     -2.568852   -1.298896   -0.882630
C      0.706867    1.261738    1.288323
C     -1.972776    1.724986   -0.920217
C     -2.461770    0.864526    0.220048
C     -0.551248    2.106791   -0.627130
C      3.570357    0.095152    0.405682
C      1.590333    1.000895   -0.951366
C      0.502492   -1.472546    0.269317
C      2.435166   -0.015696   -0.223890
C     -0.333207   -0.352741   -0.330169
C      3.875302   -1.253308    0.908555
C     -1.756570   -0.468028    0.119955
C      0.283325    0.977830   -0.131706
C      1.918718   -1.411843   -0.236042
O      4.878199   -1.604585    1.569721
O      2.016014   -1.897229   -1.555929
O      2.853520   -2.105641    0.529133
H     -1.603573   -2.251911    1.345714
H     -2.984548   -1.175189    1.690606
H     -1.377183   -0.669936    2.272633
H     -1.882571   -1.818040   -1.602011
H     -3.244725   -2.008017   -0.363038
H     -3.213609   -0.650056   -1.511567
H      1.472611    0.570387    1.660534
H     -0.114708    1.352025    1.994574
H      1.206623    2.275679    1.257705
H     -2.574072    2.658636   -0.904159
H     -2.056398    1.165137   -1.854875
H     -3.563018    0.713152    0.039148
H     -2.378569    1.339979    1.198297
H     -0.581167    2.947129    0.111176
H     -0.145701    2.572736   -1.565942
H      4.205760    0.961142    0.563387
H      2.000697    2.006813   -0.848680
H      1.407658    0.704657   -1.993236
H      0.059685   -2.418079   -0.107633
H      0.464982   -1.505304    1.364273
H     -0.334503   -0.557632   -1.442462
H      2.134553   -1.192642   -2.211130
