167

C      8.523931   -2.524048   -4.041064
C     -0.574681    3.053432    2.494302
C     -3.771324    2.610244    2.106394
C      1.287913   -0.703268   -0.535814
C      1.551654    3.039036    0.161622
C      2.931486    0.480519    1.620289
C      1.722394    1.065233    2.254158
C      6.154141   -1.842493   -2.251999
C     -1.594227    2.307002   -0.203760
C     -2.325516    0.752098    3.726198
C     -0.935697    0.767506    3.193084
C     -0.292572    1.859152   -0.889525
C      4.626098   -1.726239   -2.157434
C      2.105910    1.018743   -2.056492
C      3.081541    0.079198   -2.672351
C     12.346535   -0.125531    0.973275
C     -5.596100    4.258499   -1.598147
C     -5.738774    0.644212    5.590204
C      8.844439   -0.290753   -3.006994
C     -5.609396   -2.515623   -1.828830
C     -4.150034    0.896109    0.434568
C      5.486042    0.556586   -2.297754
C      7.991383   -1.139059   -3.848852
C      3.093644    0.775180    0.150270
C     -6.290924   -3.885148   -1.986803
C      6.518728   -1.118748   -3.509380
C     11.293814   -1.144844    0.545450
C     -6.478463    3.195597   -2.224475
C     -6.003893   -0.787970    5.261599
C     -1.813274    1.443477    0.976191
C      0.546787    1.125854    1.348775
C     -3.267251    0.299634    2.585273
C     -7.672989   -3.697688   -1.408167
C      9.980200   -0.706836    1.190124
C     -6.185850    2.979922   -3.684594
C     -7.363410   -0.935559    4.601921
C      9.042424   -1.890028    0.976647
C     -5.647982    1.589298   -3.950985
C     -7.212979   -2.028046    3.566235
C     -7.682701   -3.086620   -0.053372
C      9.321579   -2.537687   -0.363176
C     -4.651276    1.275829   -2.855636
C     -6.248951   -1.477716    2.499300
C      4.128378   -0.158289   -0.382310
C      9.957084   -1.566996   -1.333364
C     -6.523424   -2.219497    0.301202
C     -5.282603    1.337457   -1.490949
C     -4.985316   -1.113718    3.191641
C     -0.716485    1.665429    1.999230
C     -3.191570    1.365851    1.497830
C      1.827800    0.702441   -0.634623
C      0.863077    1.708481    0.015135
C      4.269005   -0.266411   -1.846289
O     12.463216   -0.220586    2.372887
O     -6.122573    4.503159   -0.321025
O     -4.607916    0.827088    6.366527
O     -6.375345   -4.228281   -3.323030
O     -8.385963   -4.899634   -1.381893
O     10.121995   -0.348618    2.506473
O     -7.325764    3.116825   -4.481701
O     -8.350718   -1.320197    5.495652
O      7.707179   -1.552419    1.150559
O     -4.982631    1.562441   -5.176565
O     -8.397441   -2.470543    3.047440
O     -8.876918   -2.320272    0.020674
O     10.151553   -3.649047   -0.196047
O     -4.076768    0.038093   -3.131419
O      5.368705    0.245322    0.165473
O      9.166611   -0.548026   -1.751433
O     -5.404150   -2.341929   -0.490907
O      5.966679    0.153956   -3.537345
O     -4.402006    1.835687   -0.556201
O     11.171490   -1.064305   -0.802604
O     -6.491767    2.030472   -1.498148
O     -5.014027   -1.432477    4.562492
O     -4.522049    0.169550    3.074588
O     -6.080705   -2.542032    1.606885
H      9.579393   -2.482060   -4.353607
H      7.925765   -3.061362   -4.859223
H      8.442234   -3.139887   -3.131410
H     -1.203723    3.239322    3.414799
H     -0.830147    3.864375    1.791261
H      0.453606    3.304843    2.842759
H     -4.211812    2.451634    3.125977
H     -4.679492    2.889759    1.489811
H     -3.136298    3.501998    2.057598
H      1.724646   -1.330816   -1.364516
H      0.194287   -0.775732   -0.701484
H      1.635709   -1.237158    0.384163
H      2.276971    3.267528   -0.651419
H      0.760994    3.831508    0.021948
H      2.101915    3.160825    1.105655
H      2.983940   -0.626173    1.786714
H      3.856420    0.887262    2.121412
H      1.432773    0.356548    3.091140
H      1.997928    1.988363    2.761882
H      6.628146   -1.410802   -1.347968
H      6.376767   -2.924981   -2.286463
H     -1.570499    3.399937   -0.016399
H     -2.362934    2.110286   -0.974402
H     -2.382431   -0.060882    4.478046
H     -2.682374    1.668025    4.185364
H     -0.267445    1.061375    4.049099
H     -0.673929   -0.286625    2.913693
H     -0.059785    2.668317   -1.626257
H     -0.524731    0.954758   -1.494136
H      4.217372   -2.342385   -1.354456
H      4.238633   -2.026331   -3.144190
H      2.442585    2.048460   -2.257243
H      1.151248    0.909375   -2.638187
H      2.595220   -0.840345   -3.120571
H      3.474127    0.584305   -3.610294
H     13.318871   -0.300377    0.506093
H     12.026550    0.895520    0.754710
H     -5.743871    5.189215   -2.183621
H     -4.538666    3.963747   -1.569455
H     -6.607767    1.011944    6.212239
H     -5.747813    1.308960    4.692345
H      9.838548   -0.208007   -3.603986
H      8.519689    0.804235   -3.049942
H     -4.615166   -2.547522   -2.318264
H     -6.273366   -1.772410   -2.296231
H     -5.138609    0.614925    0.871138
H     -3.774748   -0.019660   -0.084314
H      6.248158    0.609347   -1.516814
H      5.095076    1.591379   -2.441906
H      8.021755   -0.648560   -4.903108
H      3.518287    1.813034    0.015966
H     -5.703595   -4.634222   -1.448774
H      6.015580   -1.679071   -4.349857
H     11.557986   -2.148088    0.942514
H     -7.528481    3.604060   -2.164135
H     -6.097905   -1.330444    6.239895
H     -1.591175    0.380809    0.600776
H      0.264139    0.044409    1.148709
H     -2.784338   -0.620088    2.222589
H     -8.189313   -2.985333   -2.118976
H      9.574571    0.140120    0.612373
H     -5.430837    3.740245   -3.999820
H     -7.656381    0.005961    4.103499
H      9.299317   -2.634524    1.757260
H     -6.463099    0.862325   -3.935082
H     -6.660283   -2.886190    4.017731
H     -7.790771   -3.937996    0.684775
H      8.380925   -2.909292   -0.775873
H     -3.829730    2.034421   -2.870033
H     -6.734443   -0.660356    1.934492
H      3.927410   -1.163948    0.087218
H     10.300969   -2.163408   -2.201546
H     -6.888375   -1.150713    0.322484
H     -5.547595    0.297109   -1.194190
H     -4.162087   -1.781090    2.792853
H     12.849322    0.606849    2.763589
H     -5.828483    5.391903    0.010013
H     -4.236880    1.734603    6.126071
H     -5.762625   -3.659406   -3.861193
H     -9.164717   -4.823696   -1.975080
H     10.193867    0.648697    2.547499
H     -8.075551    3.528986   -4.014126
H     -9.188828   -0.790847    5.370148
H      7.209183   -2.364878    1.425215
H     -5.517415    2.134077   -5.807824
H     -8.967335   -1.746154    2.715998
H     -9.619507   -2.942178   -0.217743
H     10.091197   -4.032621    0.725097
H     -4.107761   -0.151633   -4.122123
H      5.422027    1.225139    0.262523
