83

C     13.082310   -0.095243   -0.221765
C     11.044847    2.086914    0.007599
C      4.828829   -0.635995   -1.628702
C     11.629548   -0.350340    0.050463
C      7.525494    0.168312    1.397854
C      0.135528   -0.988215    0.284274
C      8.966771    0.461741    1.168783
C      6.669596   -0.085994    0.447971
C      0.669081   -0.019511   -0.433156
C     -1.314415   -1.046688    0.409907
C      9.284009    0.421909   -0.319985
C      5.268293   -0.367487    0.721474
C      2.141187    0.144598   -0.634346
C     -1.937517   -1.989750    1.114389
C    -10.051291    0.912371   -2.521637
C     -8.083350    2.211172   -2.653335
C     -8.018342    1.400578    1.860548
C     -9.791577   -1.232351   -1.000452
C     10.748560    0.722579   -0.537504
C      4.385166   -0.626853   -0.215987
C     -9.378100    0.047306   -1.690708
C     -9.402475    2.032162   -3.027740
C      2.945748   -0.913432    0.078396
C     -7.407373    1.348730   -1.822961
C     -7.535186   -0.043677    1.733933
C     -3.382187   -2.042704    1.235987
C     -8.066262    0.248866   -1.333642
C     -6.058060   -0.029027    1.587161
C     -5.600532   -1.230991    0.791058
C     -6.319935   -1.328037   -0.534808
C     -7.731100   -0.896166   -0.437163
O     -9.352115    1.413996    2.252885
O    -10.028168    2.941945   -3.870868
O      2.779344   -0.841085    1.463351
O     -6.081124    1.555967   -1.465345
O     -3.901241   -2.958725    1.915098
O     -5.470360   -0.136379    2.846825
O     -6.264156   -2.668346   -0.909523
O     -8.539288   -1.898644   -1.044503
O     -4.207530   -1.119578    0.630254
O     -8.241768   -0.757758    0.821245
H     13.351856   -0.328396   -1.282304
H     13.658770   -0.822451    0.411464
H     13.413794    0.926163   -0.015791
H     12.010765    2.465983   -0.391840
H     10.248426    2.782410   -0.286117
H     11.089219    2.091477    1.117794
H      5.038184    0.420055   -1.908381
H      4.046386   -1.066507   -2.276783
H      5.750487   -1.265261   -1.687614
H     11.499116   -0.468123    1.125030
H     11.354044   -1.305318   -0.460997
H      7.185900    0.170074    2.418829
H      0.757609   -1.722287    0.765711
H      9.537203   -0.347935    1.654139
H      9.176467    1.463765    1.592085
H      6.998196   -0.090953   -0.581754
H     -0.025497    0.691833   -0.897614
H     -1.953325   -0.319237   -0.068411
H      9.065005   -0.563005   -0.738668
H      8.720639    1.236467   -0.853420
H      4.890890   -0.372696    1.751499
H      2.429826    1.165052   -0.305054
H      2.316457    0.076426   -1.715627
H     -1.310359   -2.715457    1.592127
H    -11.092305    0.733645   -2.792053
H     -7.544307    3.089173   -3.038887
H     -7.837347    1.991215    0.964877
H     -7.438999    1.883680    2.695436
H    -10.067637   -0.970540    0.037974
H    -10.563446   -1.766844   -1.552596
H     10.898898    0.753532   -1.638619
H      2.686293   -1.910825   -0.268562
H     -7.778516   -0.491408    2.745267
H     -5.703121    0.931985    1.173873
H     -5.808695   -2.112106    1.426971
H     -5.800038   -0.764590   -1.334591
H     -9.571965    0.600958    2.754098
H    -10.509539    3.730744   -3.447688
H      2.976182   -1.703734    1.897097
H     -5.516728    2.318668   -1.763945
H     -5.203052    0.720051    3.221235
H     -5.316600   -2.951854   -1.010278
