42

C      2.660031    0.654149   -1.382062
C      2.866969    1.453113    0.930265
C     -1.786119    3.405441    0.970252
C     -1.660553   -2.572966   -1.148739
C     -2.119491    1.454472   -0.691678
C     -2.288929   -0.026898   -0.498732
C      1.314663   -1.753920   -0.406359
C      0.310594   -2.632314    0.268225
C     -0.240487    1.490984    0.806925
C      2.565286    0.281061    0.052359
C     -1.331187    2.115418    0.399455
C      1.316364   -0.446651    0.434032
C      0.039760    0.216995    0.110031
C     -1.186931   -0.617820    0.353510
C     -1.086079   -2.070200    0.183638
O     -1.837058   -2.728505    1.170680
H      2.427792   -0.149906   -2.083998
H      2.091073    1.600778   -1.596194
H      3.736440    0.934104   -1.582617
H      2.587919    1.273692    1.999901
H      2.424053    2.405468    0.592313
H      3.980381    1.670550    0.950328
H     -2.498807    3.902430    0.278665
H     -0.930916    4.117090    1.096906
H     -2.332815    3.259909    1.928283
H     -1.515549   -3.693065   -1.098250
H     -1.106213   -2.176819   -2.007850
H     -2.752422   -2.432773   -1.192619
H     -3.117474    1.962643   -0.767691
H     -1.546576    1.677979   -1.637007
H     -2.165693   -0.509183   -1.513846
H     -3.296332   -0.286211   -0.107734
H      2.311033   -2.184694   -0.264767
H      1.073586   -1.539118   -1.454352
H      0.335138   -3.641194   -0.197161
H      0.615547   -2.729111    1.338776
H      0.361447    1.870799    1.568850
H      3.427861   -0.449931    0.231306
H      1.333897   -0.758911    1.487726
H      0.019787    0.483088   -0.991308
H     -1.527568   -0.405786    1.417019
H     -1.472425   -2.424184    2.053520
