39

C      3.486384   -1.297638    0.608372
C      3.533184    0.163206   -1.484403
C     -1.434924    3.147150    0.009116
C     -2.036764   -2.525229   -0.344345
C     -3.119113   -0.611630    0.749635
C     -2.689241    0.790102    1.030688
C      0.452311    1.858926   -0.824486
C      0.577261   -0.923720    0.694664
C      2.774511   -0.491548   -0.389333
C     -0.761330    2.006308    0.019023
C     -1.841436   -1.378954    0.615812
C     -1.187877    0.860130    0.856880
C      1.474040   -0.338866   -0.330131
C     -0.772580   -0.428333    0.219748
C      0.606210    0.433864   -1.247120
O      1.102989    0.404104   -2.543933
O     -0.598760   -0.289400   -1.144926
H      3.165614   -2.368837    0.452568
H      4.582992   -1.302483    0.444395
H      3.179213   -1.035260    1.619070
H      4.579870    0.279268   -1.167748
H      3.485476   -0.413978   -2.430716
H      3.110921    1.186437   -1.638404
H     -1.103217    3.968520   -0.610428
H     -2.322904    3.279934    0.615442
H     -2.212511   -2.169862   -1.377526
H     -2.965512   -3.054254   -0.020719
H     -1.209611   -3.255668   -0.284776
H     -3.741383   -1.004207    1.602050
H     -3.722789   -0.694070   -0.171982
H     -3.163929    1.455151    0.275206
H     -2.946534    1.137566    2.049523
H      0.443774    2.557277   -1.694551
H      1.318893    2.149978   -0.164678
H      0.753674   -0.476063    1.703133
H      0.606260   -2.014752    0.699776
H     -1.608161   -1.814907    1.613927
H     -0.696503    0.942973    1.854474
H      0.901501    1.268764   -2.985537
