64

C      0.471688    4.625980    0.788736
C     -3.320590   -2.243833    0.917463
C     -4.663410   -1.249945   -0.743968
C     -4.449142   -2.928670    1.381766
C     -5.754348   -1.918414   -0.287426
C     -1.844437    3.696155    0.989342
C      6.211175   -0.519568   -0.007059
C     -0.386864    3.394433    0.970461
C     -3.411609   -1.390236   -0.157178
C     -5.670983   -2.776377    0.790434
C     -2.517970    2.640545    0.164643
C      4.714091   -0.606516   -0.126489
C     -0.128234    2.371110   -0.118006
C     -0.900289   -1.345008   -0.532818
C     -2.236942   -0.650217   -0.662150
C     -1.446246    1.754388   -0.429388
C      4.270983   -1.857090   -0.813336
C      2.778608   -1.904539   -1.008285
C      2.323802   -0.558650   -1.527418
C     -0.519926   -0.355885    0.563534
C     -0.116700   -1.142710   -1.782643
C      0.948257    1.446375    0.280759
C      2.805669    0.465996   -0.524022
C     -2.608266    0.727811    1.351904
C     -1.702941    0.441132    0.237214
O      6.504340    0.564542    0.852916
O     -6.771024   -3.455912    1.257708
O      4.605610   -2.934878    0.019110
O      2.478751   -2.906748   -1.929346
O     -0.650856   -1.713285   -2.783226
O     -2.706070    0.101425    2.421694
O      4.167996    0.563797   -0.652996
O     -3.338142    1.835400    0.985282
O      1.025710   -0.456495   -1.933148
O      0.689776    0.127879    0.280671
O      2.099007    1.634110   -0.531169
H     -0.225292    5.487123    0.678623
H      1.078775    4.812430    1.697418
H      1.122574    4.503409   -0.101470
H     -2.388073   -2.426403    1.440839
H     -4.744500   -0.572797   -1.599787
H     -4.331521   -3.589178    2.229284
H     -6.709846   -1.770320   -0.785481
H     -2.084721    4.714835    0.595040
H     -2.191345    3.665407    2.057220
H      6.625996   -1.410483    0.506837
H      6.725692   -0.418997   -0.967846
H     -0.081443    2.893987    1.928596
H     -3.122005    3.137737   -0.635605
H      4.321673   -0.663703    0.931845
H      0.193959    2.957739   -1.014300
H     -0.983104   -2.395456   -0.196945
H     -2.447651   -0.186845   -1.662737
H     -1.643571    1.667264   -1.513604
H      4.824652   -2.043629   -1.769949
H      2.280187   -2.096315   -0.055948
H      2.965994   -0.384156   -2.446455
H     -0.578265   -0.890673    1.555636
H      1.320447    1.722662    1.313095
H      2.628770   -0.012769    0.486738
H      6.582002    1.374909    0.324971
H     -6.969311   -4.378245    0.860950
H      3.843529   -3.474507    0.282046
H      3.035925   -3.699134   -1.842578
