39

C      2.830218   -2.311166   -0.922944
C      3.699131   -0.387337    0.595479
C     -0.926831    3.298187   -1.023116
C     -2.075259   -2.087066    1.104795
C     -3.107532    0.114470    0.492854
C     -2.842036    1.114311   -0.624062
C      0.878764    1.804341   -0.439136
C      0.157376   -1.073821   -0.821111
C      2.603258   -1.059017   -0.149193
C     -0.530902    2.048468   -0.848724
C     -2.197276   -1.012063    0.064735
C     -1.409041    0.885348   -1.038799
C      1.382260   -0.555039   -0.143538
C     -0.912765   -0.267710   -0.172854
C      0.897798    0.691787    0.556913
O      1.718308    1.018446    1.617756
O     -0.369708    0.286216    0.965406
H      2.651667   -3.160112   -0.245910
H      3.894242   -2.318619   -1.296538
H      2.117505   -2.328715   -1.784523
H      3.774068    0.683465    0.311135
H      4.661431   -0.866935    0.277963
H      3.590419   -0.530706    1.688029
H     -1.939650    3.516602   -1.319627
H     -0.238627    4.113918   -0.870055
H     -1.383275   -2.848691    0.727193
H     -1.788391   -1.692359    2.095933
H     -3.070321   -2.568396    1.199104
H     -2.721372    0.504523    1.458655
H     -4.170633   -0.179758    0.536906
H     -3.485484    0.776440   -1.479452
H     -3.061977    2.144522   -0.320874
H      1.368958    2.726522   -0.067248
H      1.433131    1.524550   -1.373016
H      0.237689   -0.883596   -1.900440
H      0.109509   -2.156042   -0.596563
H     -2.531057   -1.437617   -0.877372
H     -1.330033    0.537678   -2.092767
H      2.086441    1.934969    1.557624
