57

C     -4.050639   -1.974672    0.222970
C     -3.488806   -0.770205   -1.818563
C     -4.747767    3.125734   -0.353838
C      2.423322   -2.218532    0.943126
C     -0.603519    0.597969   -1.455545
C      5.015779   -0.445270    0.149643
C      3.966535   -1.182075   -0.653661
C      1.561172   -1.109263   -1.125611
C      0.282310   -1.496102   -0.465195
C      1.086921    0.636014    1.312020
C      2.955020    2.434311    1.530726
C     -2.916872   -1.434670   -0.639928
C     -4.242660    2.006751    0.505909
C      3.251805    1.154460    0.831695
C      2.354997    0.212169    0.686236
C     -0.129156    0.424808    0.898305
C      4.653951    0.993339    0.296294
C     -1.964903   -0.737825    0.217053
C     -1.288304    0.932666    1.667370
C     -2.509781    0.435935    0.997510
C      2.639457   -1.054105   -0.017191
C     -0.657576   -0.296176   -0.305729
O      3.894015    3.291111    1.646589
O     -4.935561    1.585780    1.446279
O      4.736034    1.696109   -0.902903
O     -1.257842    1.645063    2.688234
O     -3.003338    1.482228    0.208419
H     -4.768319   -1.188639    0.512888
H     -4.609762   -2.686154   -0.421214
H     -3.670871   -2.567807    1.076700
H     -2.878667   -0.964544   -2.752903
H     -3.736016    0.278602   -1.752605
H     -4.463648   -1.296288   -2.066112
H     -5.834520    3.220290   -0.308135
H     -4.296985    4.048319    0.034305
H     -4.469841    2.985577   -1.414975
H      2.007288   -3.109900    0.472169
H      3.453057   -2.515772    1.291135
H      1.902589   -1.912455    1.871755
H     -1.515079    1.177362   -1.688301
H     -0.290500    0.026399   -2.376845
H      0.202751    1.371572   -1.344036
H      5.212027   -0.917207    1.132988
H      5.961053   -0.500006   -0.429436
H      3.991393   -0.778050   -1.682656
H      4.258947   -2.256040   -0.663810
H      1.575591   -0.110979   -1.577797
H      1.906276   -1.841876   -1.886850
H      0.371094   -1.918154    0.548563
H     -0.186355   -2.286093   -1.084207
H      1.199467    1.176030    2.230596
H      2.024871    2.683724    1.934248
H     -2.443793   -2.386945   -1.042007
H      5.355368    1.502732    0.999568
H     -1.681909   -1.460602    1.050242
H     -3.208744    0.133583    1.804338
H      5.608642    2.157772   -0.977824
