56

C      7.687530    0.163318   -0.339620
C      7.171584    1.103664    0.514653
C      6.878454   -0.759931   -0.953381
C     -6.445656    2.860504    0.185715
C     -5.254033    2.362770    0.671668
C      5.823916    1.154826    0.786677
C      5.514680   -0.712291   -0.681101
C     -7.338293    1.974648   -0.406206
C      2.830915    0.302489   -0.876067
C      3.151621   -1.040050    1.124999
C     -2.379038   -1.697698   -0.796718
C     -2.840020   -0.278801   -1.062043
C      1.348295    0.417913   -0.626000
C      1.761742   -1.483588    0.795539
C     -5.846025    0.149639   -0.014588
C     -3.652699    0.470977    1.100730
C     -1.295199    0.533407    0.546735
C     -4.947739    1.012293    0.575397
C      5.003848    0.233404    0.176552
C      3.544842    0.247749    0.432921
C     -7.039787    0.638468   -0.503746
C     -0.490940   -0.714708    0.453054
C     -0.871067   -1.642705   -0.667571
I     -8.363715   -0.743048   -1.393599
N     -2.637006    0.474584    0.118868
N      0.903999   -0.375444    0.463063
O     -0.451470   -2.938199   -0.357811
H      8.747913    0.116478   -0.558271
H      7.825244    1.824711    0.988902
H      7.246560   -1.518318   -1.634231
H     -6.681696    3.932929    0.266221
H     -4.548228    3.033865    1.135285
H      5.435295    1.898742    1.459991
H      4.889966   -1.449631   -1.175241
H     -8.271407    2.338418   -0.791483
H      3.053516   -0.582685   -1.489458
H      3.151152    1.226489   -1.427238
H      3.316090   -0.878312    2.208741
H      3.866161   -1.819821    0.790387
H     -2.629349   -2.313822   -1.710897
H     -2.880548   -2.178164    0.045501
H     -3.817518   -0.208856   -1.521888
H     -2.115225    0.117249   -1.834571
H      1.179444    1.496823   -0.365339
H      0.841867    0.189252   -1.590479
H      1.763443   -2.297206    0.047139
H      1.342666   -1.937937    1.739314
H     -5.602037   -0.912427   -0.087571
H     -3.812868   -0.484586    1.635833
H     -3.335105    1.199158    1.904232
H     -0.813686    1.392464   -0.007114
H     -1.265938    0.862348    1.628598
H      3.253133    1.109262    1.072689
H     -0.674315   -1.298354    1.404567
H     -0.481666   -1.358978   -1.651665
H     -0.751606   -3.213284    0.544639
