42

C      0.534787    3.028251    1.606054
C     -2.289726    3.710740   -1.150227
C      3.890606    0.781956   -0.060592
C      2.530212    1.068444    0.018569
C     -2.989272   -1.758876   -0.272841
C     -2.346920   -3.122555   -0.260375
C      3.496244   -1.542293    0.042911
C      1.200953   -2.421893    0.317485
C      2.125373   -1.296783    0.126818
C      4.375639   -0.492865   -0.050338
C      1.664161   -0.001171    0.112222
C     -2.023225   -0.668500   -0.144011
C     -0.142588   -2.222394   -0.211450
C     -0.657962   -0.861696   -0.090281
C      0.228733    0.217358    0.015656
C     -2.524488    0.613781   -0.092872
C     -0.324409    1.466529    0.067206
C     -1.714423    1.699847    0.011564
N     -1.100649   -3.114706    0.464066
O      5.727819   -0.800364   -0.129772
O     -3.910185    0.851500   -0.147577
O      0.461112    2.608667    0.199948
O     -2.141487    2.998093    0.066721
H      1.237010    3.854361    1.715332
H      0.865604    2.122352    2.139048
H     -0.454872    3.302651    1.968985
H     -1.338799    3.951998   -1.633149
H     -2.875952    4.637165   -1.017583
H     -2.862544    3.053157   -1.856729
H      4.636010    1.585048   -0.135460
H      2.291777    2.091964   -0.046061
H     -3.523145   -1.641161   -1.240709
H     -3.759524   -1.671619    0.547084
H     -2.156897   -3.504790   -1.281157
H     -3.043132   -3.820825    0.241308
H      3.829199   -2.573241    0.054256
H      1.129465   -2.687992    1.427703
H      1.691648   -3.342146   -0.155745
H     -0.124872   -2.475861   -1.307295
H     -1.196474   -2.742970    1.425954
H      6.108403   -0.930572   -1.058659
H     -4.523211    0.051414   -0.226008
