42

C      0.593443    3.414391   -1.076480
C     -2.822464    3.338877    1.164060
C      3.786306    0.974302    0.613982
C      2.424964    1.207949    0.423199
C     -2.853119   -2.001158   -0.266530
C     -2.163295   -3.289165   -0.047155
C      3.523278   -1.325763    0.172506
C      1.330668   -2.276250   -0.480056
C      2.165539   -1.140771   -0.029220
C      4.337569   -0.265137    0.494628
C      1.637028    0.123827    0.100818
C     -1.994087   -0.815884   -0.152394
C     -0.022479   -2.212086    0.122339
C     -0.634659   -0.890596   -0.024466
C      0.184850    0.257781    0.084063
C     -2.553985    0.455771   -0.168322
C     -0.386087    1.489435    0.062226
C     -1.780231    1.570768   -0.063993
N     -0.790667   -3.301083   -0.462281
O      5.687271   -0.523551    0.680903
O     -3.932203    0.569278   -0.293957
O      0.269617    2.680732    0.134357
O     -2.416542    2.811367   -0.086042
H      1.423025    4.085298   -0.771613
H      0.985575    2.717528   -1.832254
H     -0.255864    4.005883   -1.420712
H     -3.233435    2.514151    1.800160
H     -1.883195    3.669795    1.682191
H     -3.546442    4.155087    1.028892
H      4.421672    1.809844    0.865063
H      2.111056    2.201812    0.594154
H     -3.719548   -1.948447    0.462874
H     -3.348578   -2.038646   -1.274945
H     -2.686629   -4.090445   -0.605873
H     -2.229348   -3.578267    1.027609
H      3.898717   -2.331936    0.064330
H      1.866996   -3.216259   -0.200906
H      1.278953   -2.260175   -1.614137
H      0.120476   -2.403192    1.228025
H     -0.631283   -3.412723   -1.466937
H      6.333040   -0.473378   -0.097413
H     -4.495907   -0.258966   -0.370689
