48

C     -1.948844   -4.131450   -0.285835
C     -4.337230    2.809439   -0.540977
C     -2.774504   -3.368797    0.408272
C      7.233862    1.160328    0.035774
C      6.739073   -0.082905   -0.244635
C      6.442554    2.268756    0.091103
C     -0.823262   -0.668860   -0.473447
C      0.694558   -0.625700   -0.425339
C     -3.314171   -2.093092   -0.117938
C      5.370161   -0.211161   -0.481729
C      5.076318    2.127379   -0.147705
C     -1.385802   -0.936423    0.876865
C      1.153272    0.467368    0.467536
C      3.091234    0.777959   -0.680759
C     -3.484856    0.340574    0.393260
C     -2.886595   -0.993155    0.809932
C      4.573744    0.897754   -0.427128
O     -6.500020    1.428728   -1.183238
O     -6.327591    2.229561    1.141411
O      2.521491    0.538810    0.546752
O     -4.883522    0.201496    0.438926
S     -5.575536    1.648503   -0.013049
H     -1.553613   -5.060994    0.093600
H     -1.627385   -3.844397   -1.292627
H     -3.746969    2.369511   -1.381306
H     -3.629273    3.062499    0.250101
H     -4.797088    3.724655   -0.912379
H     -3.070045   -3.684766    1.399256
H      8.310047    1.246173    0.219732
H      7.388481   -0.968240   -0.286094
H      6.847732    3.237818    0.312752
H     -1.088322   -1.510597   -1.152697
H     -1.204334    0.265649   -0.948357
H      1.044270   -0.410147   -1.475037
H      1.107449   -1.583531   -0.060271
H     -4.450163   -2.142382   -0.156780
H     -3.012962   -1.961391   -1.166215
H      4.960692   -1.180346   -0.704081
H      4.489833    3.031466   -0.093262
H     -1.041686   -1.973050    1.162828
H     -1.048997   -0.233454    1.677023
H      0.705784    1.459801    0.140722
H      0.763672    0.341826    1.511935
H      2.937444   -0.130813   -1.338340
H      2.711160    1.659483   -1.204553
H     -3.166717    0.557742   -0.645162
H     -3.225011    1.137914    1.115791
H     -3.258333   -1.195543    1.844544
