52

C     -3.112167   -0.036456    1.338019
C      1.915018   -0.466831   -1.106124
C     -4.441891   -1.839743   -0.681649
C      3.891320    1.612106   -0.473033
C     -3.120885   -1.391007   -0.592501
C      3.344779    0.681413    0.571830
C     -5.688623   -1.565822   -0.051577
C      5.301565    2.044583   -0.114371
C     -6.198586    0.847691    0.601503
C      6.949390    0.303179   -1.016963
C     -6.855588    1.923445   -0.007420
C      7.613221   -0.768455   -0.423523
C     -0.978538   -0.317302   -0.007697
C      1.289892   -0.509874    1.317718
C     -6.951371    0.249259   -1.356268
C      6.430640    0.141407    1.109469
C     -2.422561   -0.625034    0.206876
C      1.937377    0.252369    0.206789
C     -6.248721   -0.218177   -0.236008
C      6.195106    0.877310   -0.023847
C     -0.129561   -0.797753    1.117148
O     -0.733304   -1.510510    1.948055
O     -7.278556    1.496381   -1.169503
O      7.272064   -0.828758    0.855801
H     -3.395253    1.026774    1.216867
H     -3.938746   -0.675423    1.704895
H     -2.411813    0.012535    2.202960
H      2.976765   -0.605164   -1.453801
H      1.527104   -1.506417   -1.004069
H      1.316695    0.079249   -1.834274
H     -4.344697   -3.006259   -0.636840
H     -4.693463   -1.805816   -1.827169
H      3.914856    1.180930   -1.483165
H      3.222075    2.495307   -0.519263
H     -2.462516   -1.795868   -1.423776
H      3.965814   -0.230156    0.692839
H      3.282048    1.230974    1.528265
H     -6.497046   -2.212970   -0.549342
H     -5.839914   -1.937121    0.999912
H      5.632188    2.743220   -0.924559
H      5.298130    2.636580    0.833581
H     -5.758100    0.940225    1.591947
H      7.028355    0.602060   -2.048447
H     -7.004615    2.920291    0.372401
H      8.299420   -1.459153   -0.891301
H     -0.846447    0.794129   -0.149962
H     -0.689539   -0.787045   -0.966518
H      1.487639    0.058252    2.264462
H      1.805030   -1.490698    1.493482
H     -7.204891   -0.305311   -2.258427
H      5.993004    0.325822    2.072042
H      1.357898    1.217631    0.118858
