36

C      4.551625   -0.112250    0.893393
C     -1.873510    0.850488    1.547896
C     -1.199654    2.107766   -1.148521
C     -2.473658   -2.143401    1.005195
C     -1.123471   -0.285576   -1.903484
C     -1.384597   -1.603191   -1.187199
C      2.114902   -0.762898    0.886505
C      1.497368    1.323355   -0.733593
C      3.140147    0.078242    0.481525
C     -1.893741    0.171688    0.232322
C      0.500673    0.485054   -0.325094
C      2.828868    1.133295   -0.337588
C      0.801304   -0.571979    0.493363
C     -0.883242    0.710495   -0.756643
C     -1.462100   -1.286809    0.292804
Br     4.215167    2.308515   -0.912386
O     -0.205270   -1.452235    0.930085
H      4.849723    0.683114    1.610782
H      5.231808   -0.026154    0.011735
H      4.724731   -1.089449    1.375664
H     -2.358285    0.172753    2.299350
H     -2.531350    1.745217    1.495032
H     -0.837673    1.092592    1.854935
H     -0.811593    2.390298   -2.145164
H     -2.299733    2.247504   -1.127434
H     -0.717601    2.791771   -0.421909
H     -3.509399   -1.862436    0.720882
H     -2.288017   -2.011542    2.100193
H     -2.258735   -3.201786    0.778320
H     -1.981003    0.049303   -2.499050
H     -0.194306   -0.421608   -2.499224
H     -2.396367   -1.935815   -1.491956
H     -0.606548   -2.358602   -1.413182
H      2.364031   -1.589063    1.528975
H      1.343304    2.183518   -1.381975
H     -2.873798    0.189824   -0.254555
