52

C      2.558534    1.641713    0.491077
C     -2.023852    0.192194    1.121124
C      4.500227    0.097116   -0.701663
C     -4.127643   -1.467329    0.170305
C      3.085214   -0.352998   -0.798451
C     -3.650671   -0.295258   -0.655832
C      5.353728   -0.952774    0.006123
C     -5.595584   -1.753720   -0.060731
C      7.772544   -0.691178   -0.808515
C     -6.902113   -0.244527    1.546058
C      8.899104   -0.068072   -0.291726
C     -7.545268    0.990034    1.399984
C      0.712931   -0.004879   -0.286748
C     -1.542921    0.939699   -1.204020
C      7.299904    0.253190    1.130721
C     -6.699995    0.478046   -0.525444
C      2.164658    0.408853   -0.214977
C     -2.176894   -0.098153   -0.347005
C      6.770598   -0.483666    0.094017
C     -6.373496   -0.552337    0.318379
C     -0.094845    1.020446   -0.953954
O      0.482251    2.056586   -1.352695
O      8.562897    0.473410    0.854702
O     -7.382090    1.354893    0.144101
H      2.907913    2.438441   -0.207118
H      3.307443    1.461052    1.307590
H      1.664151    2.061622    0.995714
H     -1.367791    1.075630    1.336139
H     -1.677387   -0.651266    1.727414
H     -3.015193    0.506131    1.563750
H      4.890369    0.162611   -1.741785
H      4.596633    1.075866   -0.228008
H     -3.963845   -1.238345    1.238699
H     -3.496612   -2.348609   -0.071706
H      2.790067   -1.256412   -1.315566
H     -3.727688   -0.561465   -1.735422
H     -4.237568    0.617845   -0.445804
H      4.908352   -1.138675    0.985367
H      5.350244   -1.893651   -0.564771
H     -5.747618   -1.989146   -1.126081
H     -5.848627   -2.627852    0.600658
H      7.710877   -1.238801   -1.755300
H     -6.847227   -0.824545    2.463169
H      9.870162   -0.037262   -0.751797
H     -8.060822    1.499682    2.198412
H      0.629828   -0.939377   -0.913848
H      0.442222   -0.288960    0.719042
H     -1.758079    0.800776   -2.283155
H     -1.963806    1.945949   -0.909782
H      6.764988    0.595502    2.026770
H     -6.450751    0.585793   -1.587173
H     -1.717455   -1.107479   -0.600236
