47

C     -2.480288    1.627943    1.429375
C     -3.104988    0.917771    0.312466
C      1.749266   -1.620605    1.563752
C      4.335647    1.159758   -0.534659
C      0.419840   -1.824011    0.924749
C      3.044738    0.591752   -1.086692
C     -2.440799   -1.757101    0.228273
C     -3.580337   -1.599111   -0.763213
C      0.032560    1.399789   -1.071999
C     -1.381339    1.280443   -1.484168
C      3.793569   -0.386493    1.379200
C      2.535105   -0.508625    1.004851
C      4.589532    0.701034    0.842495
C      2.015875    0.495501    0.045795
C      0.684946    0.193856   -0.510724
C     -0.233683   -0.538471    0.479530
C     -1.425485   -0.850820   -0.319805
C     -3.206543   -0.416154   -1.627587
C     -2.238786    0.348738   -0.737914
O      5.482401    1.255424    1.518570
O     -3.579579   -0.146605   -2.738773
H     -1.554669    2.170633    1.235463
H     -3.210242    2.406558    1.807570
H     -2.388906    0.923842    2.306926
H     -3.751072    0.096524    0.714157
H     -3.839019    1.606382   -0.201042
H      1.663593   -1.421569    2.671866
H      2.306635   -2.601378    1.516193
H      5.155874    0.712793   -1.169789
H      4.375380    2.264181   -0.633039
H     -0.255522   -2.292719    1.670968
H      0.481745   -2.564081    0.076870
H      3.175392   -0.442525   -1.465816
H      2.653695    1.202683   -1.922649
H     -2.072341   -2.817557    0.105870
H     -2.741074   -1.585797    1.266340
H     -3.639788   -2.457834   -1.473025
H     -4.554986   -1.481887   -0.296629
H      0.625889    1.696274   -1.989449
H      0.228009    2.255625   -0.363134
H     -1.842771    2.309423   -1.418926
H     -1.444581    1.040282   -2.586694
H      4.212398   -1.108696    2.090702
H      1.997240    1.514419    0.503383
H      0.818804   -0.543580   -1.355221
H     -0.352401    0.097897    1.349061
H     -1.058935   -1.303907   -1.293480
