31

C      5.336720   -0.484736   -0.045082
C     -4.210122   -1.481763   -0.126929
C     -2.101985    1.174247    0.866486
C      2.085944    1.448933    1.614827
C     -0.105690   -0.201412   -1.903959
C     -1.792407    1.064524   -0.630385
C     -3.055023   -0.546294    0.057272
C      1.675144    0.072028   -0.720830
C      2.929366    0.122752   -0.110295
C      0.645099    0.736638   -0.113389
N      4.041079   -0.541981   -0.683385
N      3.103429    0.809415    1.041461
N      0.884426    1.391350    1.015831
N      1.199911   -0.498447   -1.817651
N     -0.456416    0.563584   -0.851358
O     -4.584033   -1.978709    1.114521
O     -3.361654    0.533748    0.885647
O     -2.684915    0.105330   -1.112542
H      5.369233    0.289398    0.728068
H      6.098624   -0.215476   -0.808258
H      5.621127   -1.477762    0.393491
H     -3.811377   -2.365505   -0.700103
H     -5.026069   -1.076566   -0.718354
H     -2.144879    2.202449    1.212614
H     -1.441922    0.507186    1.461169
H      2.154673    2.018279    2.537815
H     -0.740797   -0.554705   -2.727474
H     -1.937204    2.055507   -1.103087
H     -2.147537   -1.054518    0.439042
H      3.895397   -1.066553   -1.568667
H     -5.438142   -1.550942    1.434141
