26

C      3.536291    0.451040    0.054956
C     -3.084503    0.130659   -0.537278
C      0.592234    1.138054   -0.590548
C     -1.082652   -1.170020   -0.039496
C      2.395195   -0.092703    0.427355
C      1.204376   -0.211076   -0.450794
C      0.370393   -1.209047    0.286490
C     -0.868898    1.158486   -0.662201
C      2.020575   -0.678876    1.699579
C     -1.711693    0.179102    0.080758
O     -1.434018    2.008046   -1.355899
O      2.818069   -0.811013    2.669277
O     -1.830443    0.531339    1.423591
O      0.664320   -1.054813    1.651365
H      3.691987    0.855541   -0.927623
H      4.339136    0.490252    0.761496
H     -3.502827    1.168266   -0.563183
H     -3.751083   -0.537716    0.026616
H     -2.971147   -0.289267   -1.567555
H      0.996574    1.599275   -1.526438
H      0.904832    1.811671    0.237123
H     -1.597643   -1.883746    0.647052
H     -1.203865   -1.504791   -1.093275
H      1.506291   -0.630648   -1.447549
H      0.747244   -2.226291   -0.003122
H     -2.748746    0.778276    1.655361
