31

C     -5.378761    0.252275    1.075162
C      4.342770    1.113533    0.666492
C      2.337407   -0.186378   -1.963805
C     -2.044132   -2.242938    1.137005
C     -0.140720    1.136127   -0.985123
C      1.597142   -0.670950   -0.725314
C      3.196271    0.675754   -0.192883
C     -1.821608    0.175276   -0.019818
C     -3.006535   -0.209092    0.529087
C     -0.741668   -0.659679    0.012284
N     -4.119014    0.672245    0.486491
N     -3.116289   -1.432361    1.113380
N     -0.889188   -1.869259    0.602420
N     -1.422896    1.312825   -0.657352
N      0.306380   -0.068474   -0.586045
O      5.209492    0.107115    1.011681
O      3.597983    0.124183   -1.400062
O      2.421806   -0.314452    0.356032
H     -5.180677   -0.491876    1.857963
H     -6.034134   -0.217158    0.299908
H     -5.945225    1.114919    1.487017
H      4.835427    1.969712    0.142230
H      3.918279    1.538630    1.597781
H      1.909828    0.727902   -2.372568
H      2.422464   -0.973092   -2.732846
H     -2.156870   -3.226994    1.614805
H      0.452701    1.855076   -1.496468
H      1.481402   -1.765221   -0.796312
H      2.574873    1.549832   -0.411651
H     -4.030045    1.603273    0.040056
H      5.423537   -0.528115    0.310454
