15

C      0.495464   -1.215626    0.015640
C      1.536505   -0.407683    0.115203
C     -0.817866   -0.652051   -0.317945
C      1.305143    1.023798   -0.116880
C     -1.103071    0.695387    0.280209
C      0.033317    1.593698    0.347385
Br     3.271617   -1.078290    0.533822
O     -1.817138   -1.554425    0.058824
O      2.223534    1.672374   -0.704003
O     -0.993381    1.827052   -0.530947
H      0.677281   -2.272619    0.191165
H     -0.918349   -0.517420   -1.437160
H     -1.951490    0.778024    1.016399
H      0.135555    2.220492    1.264841
H     -2.077120   -2.112710   -0.716555
