15

C      0.257760    1.289537    0.260682
C     -1.004439    1.188029   -0.114973
C      1.119308    0.094344    0.235285
C     -1.493386   -0.110792   -0.539406
C      0.438880   -1.207123    0.459865
C     -0.888026   -1.347458   -0.040307
Br    -2.121100    2.740150   -0.095336
O      1.794220    0.062099   -1.002487
O     -2.453405   -0.154606   -1.349205
O     -0.588638   -1.343484    1.407403
H      0.663566    2.263285    0.591856
H      1.930801    0.216770    0.990965
H      1.140744   -2.076851    0.534622
H     -1.349952   -2.303487   -0.313012
H      2.553668    0.689587   -1.025953
