37

C     -2.174814   -0.947279    0.880339
C     -3.189460   -0.843108   -1.318335
C      2.962014   -2.457234    0.262305
C     -1.617219    1.497141   -0.847784
C     -1.141516    2.090252    0.448353
C      0.767235   -1.043142    0.309644
C      2.962117   -0.050897    0.396846
C     -1.865597   -0.975457   -0.563805
C      2.250956   -1.161295    0.324114
C     -0.986217    0.132705   -1.083784
C      0.139993    2.030893    0.744184
C      0.448711    0.054267   -0.714513
C      2.325883    1.279148    0.461551
C      1.023756    1.376245   -0.236564
C      1.000179    2.445045    1.838471
O      0.701542    3.306120    2.706897
O      2.199362    1.753500    1.788353
H     -1.638856   -1.825293    1.352232
H     -1.813082   -0.064764    1.435698
H     -3.240844   -1.164301    1.051330
H     -3.680229   -1.812479   -1.448377
H     -3.060489   -0.284960   -2.269110
H     -3.852642   -0.222893   -0.682807
H      3.319797   -2.796025    1.262795
H      2.375930   -3.259114   -0.208634
H      3.877380   -2.302815   -0.353019
H     -1.225837    2.174092   -1.653770
H     -2.699534    1.440659   -0.891401
H     -1.808100    2.557758    1.134428
H      0.484079   -0.728974    1.329884
H      0.372611   -1.994423   -0.029980
H      4.064032   -0.132793    0.408991
H     -1.447168   -1.938780   -0.915230
H     -1.069644    0.007148   -2.212388
H      1.060715   -0.223401   -1.599900
H      3.058905    2.007157   -0.012050
H      1.116050    2.077299   -1.094966
