37

C      3.457308   -0.192395   -0.485933
C      2.065187    1.740363   -0.704450
C     -2.743042    2.762046    0.357781
C      1.461312   -1.733664    0.828506
C      0.776347   -2.424861   -0.290820
C     -0.745568    1.198681   -0.075835
C     -2.969050    0.356854    0.312836
C      1.954144    0.225496   -0.610070
C     -2.184679    1.403309    0.206637
C      1.253192   -0.191240    0.657533
C     -0.527172   -2.136550   -0.391486
C     -0.226644    0.068936    0.719152
C     -2.453547   -1.001485    0.170477
C     -1.047356   -1.190985    0.621371
C     -1.626373   -2.509043   -1.258608
O     -1.642142   -3.570478   -1.959684
O     -2.578783   -1.508425   -1.147604
H      3.577198   -1.247655   -0.719119
H      3.854672    0.132068    0.485125
H      3.981156    0.382354   -1.281174
H      2.055807    2.178173    0.313353
H      3.083071    2.033912   -1.102744
H      1.363558    2.216993   -1.375878
H     -1.985826    3.553606    0.405163
H     -3.299129    2.787700    1.319488
H     -3.447587    3.006489   -0.458360
H      0.960050   -1.994548    1.765868
H      2.527996   -1.907741    0.900025
H      1.215459   -3.102855   -0.990213
H     -0.661638    1.084659   -1.170006
H     -0.253542    2.143078    0.289599
H     -4.054365    0.476569    0.513353
H      1.619722   -0.266513   -1.520681
H      1.812085    0.236558    1.505850
H     -0.393287    0.403170    1.800541
H     -3.128471   -1.677068    0.780023
H     -1.050062   -1.735508    1.589985
