79

C      7.461644    2.491615    1.682732
C      5.155331    3.232042    0.772677
C      4.113926   -1.397313   -3.117899
C      5.067722   -2.593718   -1.228307
C     -1.507644    0.792857   -0.473459
C     -3.645446   -2.139672    0.587331
C     -7.821677    2.706289    0.101445
C     -7.600805    2.757641   -1.255860
C     -7.010896    2.000509    0.937114
C     -6.530200    2.075400   -1.776978
C     -2.134465   -0.907833    2.835649
C     -0.261859   -1.241499   -1.939354
C     -1.644362   -1.460312   -1.372421
C     -0.726100   -0.760688    2.236245
C      6.147638    1.041483    0.268161
C     -4.452307   -0.017225    2.282034
C      6.246206    2.203363    0.878338
C     -3.001011   -0.135808    1.933931
C     -5.933798    1.318056    0.387406
C     -4.962250    0.536673    0.971885
C     -5.683789    1.348884   -0.971529
C      0.815104   -1.760617   -1.004239
C      4.950105    0.711166   -0.546552
C      2.722731    0.153388   -0.382258
C     -4.144761    0.111368   -0.052181
C      3.070788   -1.241015   -0.922629
C      1.580348   -0.013262    0.562942
C      4.368682   -1.280105   -1.608122
C     -1.750884   -0.634619   -0.080012
C     -3.094908   -0.739764    0.560321
C     -0.697027   -1.211500    0.820180
C      0.699820   -1.013740    0.276765
N     -4.596185    0.614104   -1.230520
O     -0.905310   -2.611323    0.829870
O      2.003712   -1.663456   -1.662927
O      3.893735    0.528337    0.314866
O      5.232307   -0.272674   -1.406279
O      1.667121   -1.296770    1.298527
H      8.246030    2.843727    0.993376
H      7.188278    3.230615    2.459132
H      7.802950    1.528276    2.112723
H      5.019961    3.482927   -0.287669
H      5.469657    4.134194    1.297738
H      4.227584    2.870886    1.262736
H      3.105304   -1.811342   -3.310922
H      4.257769   -0.407881   -3.615160
H      4.842572   -2.088851   -3.589675
H      5.282448   -2.505710   -0.139167
H      6.003032   -2.730277   -1.799141
H      4.340485   -3.406815   -1.346205
H     -2.296065    1.494359   -0.069520
H     -1.585406    0.948528   -1.589608
H     -0.535560    1.162948   -0.125067
H     -3.601709   -2.534976   -0.451719
H     -4.740289   -2.057040    0.801758
H     -3.214570   -2.791419    1.341832
H     -8.669965    3.246816    0.514243
H     -8.273614    3.335302   -1.897429
H     -7.137888    1.926516    2.007145
H     -6.348382    2.108108   -2.832278
H     -2.383858   -1.952553    3.003169
H     -2.106457   -0.411025    3.829874
H     -0.178985   -1.850410   -2.878758
H     -0.026329   -0.213053   -2.193678
H     -1.688844   -2.562122   -1.133129
H     -2.373563   -1.160431   -2.119005
H     -0.449688    0.320205    2.269927
H     -0.063219   -1.391869    2.825658
H      6.937910    0.318501    0.355482
H     -4.594113    0.698675    3.097951
H     -4.980570   -0.943509    2.480722
H     -2.599902    0.892622    1.849801
H      0.613673   -2.844293   -0.797407
H      4.718987    1.649244   -1.132466
H      2.489653    0.843803   -1.201040
H      3.106777   -1.890009    0.002261
H      1.395162    0.827706    1.258673
H     -4.144256    0.433741   -2.148408
H     -0.146239   -2.974374    1.386358
