21

C      1.887894    0.595176    1.132189
C      0.722184    1.172250    0.914243
C     -1.661278    0.598493    0.504565
C     -2.227424   -0.341939   -0.572486
C      1.053075   -1.483719    0.013528
C      2.193178   -0.583666    0.328877
C     -0.050251   -0.685310   -0.586910
C     -0.236354    0.691893   -0.065532
O      3.385759   -0.809318   -0.070685
O     -0.346068    1.580854   -1.165677
O     -1.290034   -1.363403   -0.499866
H      2.617784    0.941667    1.857094
H      0.486171    2.037904    1.498177
H     -1.626041    0.101854    1.471511
H     -2.177911    1.554005    0.478346
H     -3.240564   -0.647990   -0.352742
H     -2.109108    0.219982   -1.533011
H      1.421504   -2.223043   -0.723970
H      0.735886   -2.016754    0.945858
H      0.140996   -0.666130   -1.703132
H      0.320602    1.327193   -1.870377
