57

C     -7.325183    0.053945    0.635790
C     -2.588011   -0.357757   -4.909381
C      3.530666    0.844210    0.878035
C      4.700428    0.627701    1.405121
C      2.331022   -1.115151    1.878974
C      1.198521   -1.892799    2.046232
C      7.095446    1.123489    1.808373
C      5.877674    2.587216    0.438664
C      1.166641    0.327702    0.448822
C     -4.702266   -0.342616   -0.225909
C     -3.142478   -0.477603   -2.063510
C      8.224740    3.009597    0.879094
C     -3.213482   -3.088675    0.783080
C      2.343837    0.005693    1.082424
C      5.896146    1.453512    1.213593
C     -3.429166   -0.529558   -0.702136
C      8.243854    1.872102    1.656297
C      7.039260    3.358624    0.275505
C      0.027846   -1.565569    1.411064
C      0.006639   -0.448612    0.605580
C     -5.701163   -0.098492   -1.155366
C     -4.128242   -0.235140   -2.999393
C     -2.021972   -2.234754    0.432377
C     -5.408351   -0.047030   -2.525866
C     -2.338694   -0.794897    0.257740
O     -4.170462   -3.080877   -0.237717
O      9.443355    1.507433    2.274819
O      7.021260    4.508771   -0.509400
O     -6.416196    0.197435   -3.438778
O     -6.997730    0.096903   -0.738773
O     -3.871801   -0.177661   -4.357383
O     -1.138488   -2.337547    1.563124
O     -1.161158   -0.090659   -0.051476
H     -7.177257   -0.970785    1.025168
H     -8.395967    0.309965    0.790828
H     -6.657647    0.729427    1.210713
H     -2.117601   -1.317962   -4.672257
H     -2.553041   -0.116932   -5.987355
H     -1.935244    0.427940   -4.425344
H      3.433311    1.714795    0.238416
H      4.771833   -0.267395    2.052097
H      3.207691   -1.438259    2.409621
H      1.195547   -2.777856    2.677689
H      7.107625    0.230201    2.418342
H      4.982178    2.911115   -0.056571
H      1.131855    1.210919   -0.193258
H     -4.958266   -0.376700    0.825271
H     -2.141970   -0.623576   -2.456807
H      9.139202    3.599760    0.761233
H     -3.642219   -2.869262    1.769834
H     -2.835821   -4.145098    0.835117
H     -1.533860   -2.681926   -0.444374
H     -2.673619   -0.399802    1.255970
H     -3.732349   -3.463499   -1.032711
H      9.579539    1.900832    3.209256
H      6.789907    5.409213   -0.060694
H     -7.376319    0.345949   -3.177923
