50

C     -4.501280    1.699747   -0.483156
C      3.403131    1.533453    0.363216
C      4.456342    0.668605   -0.279182
C      2.633403    2.363675   -0.596900
C      5.138706   -0.107441    0.856469
C      1.887156    1.585604   -1.633820
C      6.208541   -0.997423    0.284087
C      0.863571    0.623705   -1.033669
C      6.121176   -2.293606    0.468955
C     -5.116127    0.571500    0.252910
C     -0.160617    1.328440   -0.229712
C     -4.180711   -0.310080    0.973852
C     -1.207645    0.530465    0.445351
C     -2.057023   -0.290481   -0.460091
C     -3.136706   -1.039666    0.251748
Cl     7.359394   -3.341640   -0.191691
Cl    -6.236392   -0.359378   -0.797123
Cl    -0.850809    2.717719   -1.136504
Cl    -5.158167   -1.543137    1.878451
Cl    -0.430987   -0.580487    1.673092
Cl    -0.986905   -1.591050   -1.152097
O     -5.173686   -4.121714   -0.801735
O     -3.171973   -3.745113    0.866448
O     -2.671098   -3.984820   -1.498252
O     -3.791941   -1.798534   -0.761045
S     -3.667976   -3.433998   -0.506392
H     -4.428777    1.491853   -1.591115
H     -5.197592    2.616232   -0.458245
H     -3.557698    2.096169   -0.111222
H      3.933986    2.228325    1.060146
H      2.714373    0.945413    0.999558
H      5.257415    1.299617   -0.716398
H      4.086915    0.002804   -1.055957
H      1.941380    3.016229   -0.031192
H      3.363441    3.032801   -1.127282
H      4.414862   -0.657450    1.459622
H      5.672345    0.602126    1.521654
H      1.318359    2.272335   -2.292666
H      2.543461    0.974653   -2.281495
H      7.002659   -0.496272   -0.258010
H      0.397031    0.165870   -1.962238
H      1.418427   -0.175222   -0.534871
H      5.293823   -2.707850    1.022846
H     -5.824338    1.053187    1.013569
H      0.419165    1.842808    0.613213
H     -3.675671    0.259068    1.814340
H     -1.873431    1.151120    1.096101
H     -2.457144    0.306949   -1.260388
H     -2.719161   -1.820267    0.941561
H     -5.615207   -3.584842   -1.491676
