50

C     -5.772845    0.889513    1.590026
C      3.167204   -0.328361    0.446751
C      4.652811   -0.599119    0.666503
C      2.925563   -0.081122   -1.016716
C      5.484780    0.578103    0.224625
C      1.456632    0.153731   -1.256102
C      6.934553    0.255486    0.467094
C      0.997803    1.345627   -0.496149
C      7.292834   -0.911867    0.990385
C     -5.738197    0.866773    0.100348
C     -0.463003    1.611651   -0.783595
C     -5.023781   -0.256412   -0.536478
C     -1.282728    0.425953   -0.365804
C     -2.754545    0.731761   -0.660831
C     -3.582078   -0.455870   -0.253737
Cl     9.005018   -1.279722    1.271142
Cl    -7.487126    0.735267   -0.401992
Cl    -0.890199    3.110898    0.045947
Cl    -5.964244   -1.765015   -0.296284
Cl    -1.083773    0.244677    1.386202
Cl    -3.131834    2.121262    0.428370
O     -1.640578   -2.843732    0.217815
O     -2.319614   -2.544702    2.729699
O     -3.986496   -3.218492    1.140405
O     -3.306249   -0.764163    1.067839
S     -2.771323   -2.312505    1.320923
H     -6.696802    0.397481    1.970289
H     -4.928905    0.457292    2.116898
H     -5.783131    1.980858    1.893637
H      2.923086    0.547531    1.083622
H      2.600930   -1.221900    0.771787
H      4.896850   -1.480398    0.040284
H      4.778709   -0.816604    1.735919
H      3.263219   -0.933275   -1.644310
H      3.426952    0.875365   -1.349442
H      5.390665    0.743275   -0.851199
H      5.179838    1.509680    0.742878
H      1.344928    0.273413   -2.362234
H      0.901713   -0.780189   -0.980720
H      7.728435    0.953267    0.227317
H      1.538756    2.270214   -0.730827
H      1.159562    1.165912    0.590519
H      6.570313   -1.666361    1.259428
H     -5.447413    1.857671   -0.323483
H     -0.568692    1.741498   -1.883653
H     -5.093296   -0.092484   -1.661887
H     -1.017404   -0.463339   -0.946055
H     -2.911918    1.051832   -1.705429
H     -3.234614   -1.304256   -0.932762
H     -0.740364   -2.776102    0.582308
