46

C      4.533787    0.696485    1.133104
C      0.052087   -0.389220   -2.578354
C      3.728388    0.486571   -1.643802
C      5.221478    0.392285    2.283216
C      2.771156    0.490795   -0.441290
C      1.005655    0.465180   -1.803107
C     -2.957816   -0.774904    0.900114
C     -4.227021   -0.273035    0.267486
C     -1.716869   -0.193110    0.301828
C     -3.963300    0.528769   -0.986119
C      4.704547   -0.585665    3.100649
C     -5.190093    0.645326   -1.799424
C     -1.749428   -0.062940   -1.185723
C      2.906399   -0.858581    1.582571
F      6.375471    1.044073    2.593068
N      5.318123   -0.905017    4.193593
N      3.556852   -1.184236    2.723275
N      3.388893    0.093816    0.764400
O     -2.920761   -2.169238    0.923694
O     -4.993810    0.504622    1.132821
O     -1.388623    1.023228    0.916503
O     -5.276816    0.161170   -2.954049
O     -6.302000    1.308237   -1.294885
O      1.711039   -1.520897    1.243719
O     -0.939547   -0.987385   -1.834487
O      1.680192   -0.283823   -0.810618
O     -3.020154   -0.174542   -1.728475
S      2.435503    0.784021   -2.926005
H      4.977468    1.483925    0.503900
H     -0.467952    0.301871   -3.298082
H      0.650082   -1.129590   -3.142107
H      4.398434    1.340306   -1.558654
H      4.202430   -0.487625   -1.780663
H      2.419818    1.536928   -0.342974
H      0.603644    1.402671   -1.417973
H     -2.985113   -0.457693    1.978075
H     -4.845173   -1.144212   -0.025428
H     -0.874433   -0.887326    0.554295
H     -3.614965    1.521858   -0.671235
H     -1.375461    0.946951   -1.447006
H      6.200780   -0.420113    4.449547
H     -2.014415   -2.470729    0.661721
H     -5.390191   -0.077800    1.850411
H     -1.277302    0.874154    1.887059
H     -6.917016    1.856970   -1.880695
H      1.566036   -2.452534    1.606107
