52

C      6.433929    0.109056    2.214507
C      5.875426    0.454876   -0.537717
C      1.911085    0.361444    0.154161
C     -2.526052    0.322409    2.930464
C     -4.682672    1.777666   -2.066024
C      5.429655   -0.766808    1.513792
C      1.966936   -1.711208   -1.454184
C      0.750690   -1.895578   -1.767703
C      3.860041   -0.825256   -0.387922
C     -1.575895   -1.562365   -1.812763
C     -1.600145    0.514219    0.044149
C      4.700926    0.026741    0.401828
C      2.510808   -0.744065   -0.567073
C     -3.773905    0.943877    2.549559
C     -0.379365   -1.175866   -1.292225
C     -2.795317   -0.928060   -1.421765
C     -2.750031    0.145036   -0.445046
C     -4.399774    1.046942    1.270434
C     -3.975230    0.719060    0.089155
C     -3.973106   -1.205287   -1.923869
C     -5.214225   -0.516428   -1.494191
C     -5.817889    1.462483    1.080022
C     -5.076730    0.872412   -0.936239
Cl    -4.024074   -2.449544   -3.147774
O     -4.426024    1.474652    3.528135
O     -6.326470   -1.060222   -1.589133
O     -6.635326    1.868691    1.938996
O     -0.465800   -0.171468   -0.406351
O     -6.167856    1.341645   -0.265986
H      6.288064    1.151171    1.881704
H      7.481633   -0.190092    1.963401
H      6.281146    0.104741    3.330591
H      5.430379    0.701465   -1.518546
H      6.551654   -0.399827   -0.676143
H      6.362694    1.353205   -0.146731
H      1.367748    0.106688    1.075749
H      1.339555    1.101079   -0.451276
H      2.765252    1.078156    0.483262
H     -1.623870    0.956093    2.953587
H     -2.612920   -0.024945    4.041925
H     -2.280719   -0.633251    2.419577
H     -3.575471    1.921911   -2.114995
H     -5.013599    1.329502   -3.026409
H     -5.204761    2.773212   -1.995149
H      4.695984   -1.187280    2.230581
H      5.980838   -1.617822    1.063440
H      2.709537   -2.443124   -1.982480
H      0.596226   -2.745721   -2.517634
H      4.356013   -1.652972   -0.915115
H     -1.584631   -2.357906   -2.527445
H     -1.552054    1.312961    0.749990
H      4.387693    0.933704    0.855865
