54

C     -0.481980   -3.224566   -0.284177
C      0.963783    1.242586   -0.880909
C     -1.383573    2.483594    0.589474
C     -4.900203   -0.749968    1.423549
C     -1.861103   -0.034453   -2.102492
C     -0.207351   -1.810122    1.668164
C      3.624240   -0.998026    0.044885
C      2.275874   -1.462146    0.247771
C     -0.471752   -0.283636    1.657052
C      4.217701    1.300853   -0.979874
C     -0.403441   -0.280325   -2.113960
C     -2.300223    1.185461   -1.363983
C      4.468580    2.511394   -0.385063
C      4.070348    1.193556    1.205788
C      0.055807   -2.202358    0.287819
C      3.952102    0.411496    0.037358
C      1.052510   -1.291146   -0.487183
C     -0.901704    0.024180    0.225780
C     -3.060848    0.783496    0.881260
C      0.278152   -0.058503   -0.726149
C     -1.828361    1.155968    0.078023
O     -3.498995    1.548225    1.769247
O     -3.749924   -0.400594    0.675058
O      4.375202    2.423023    0.914424
H     -1.172626   -3.834229    0.289245
H     -0.302338   -3.539140   -1.313557
H      1.611382    1.169058   -1.782418
H      1.512020    1.645818   -0.047695
H      0.173797    1.975333   -1.246017
H     -2.063513    2.882025    1.408740
H     -1.562075    3.240371   -0.231991
H     -0.390802    2.535370    1.030629
H     -5.539189   -1.373466    0.767794
H     -5.471678    0.166564    1.681119
H     -4.646372   -1.252861    2.370167
H     -2.491111   -0.905038   -1.811694
H     -2.158993    0.135278   -3.189581
H      0.567966   -2.071849    2.402271
H     -1.153511   -2.327319    1.989983
H      4.339546   -1.426470    0.868201
H      4.133012   -1.524266   -0.852836
H      2.404128   -2.635315    0.350559
H      2.030329   -1.319609    1.414845
H      0.378042    0.294247    2.000737
H     -1.308570   -0.125828    2.332233
H      4.218526    1.057822   -2.015105
H     -0.255133   -1.336968   -2.452756
H      0.064027    0.335724   -2.891183
H     -2.067418    2.125285   -1.891292
H     -3.436579    1.151710   -1.403491
H      4.718383    3.462657   -0.859740
H      3.924736    0.815664    2.224067
H      1.174384   -1.892266   -1.465299
H     -1.515209   -0.896295   -0.057796
