40

C     -3.732186   -0.929932   -0.324438
C      4.678601   -2.303442   -0.507854
C      0.558637   -2.662322    0.023329
C      1.932955   -2.571169   -0.157392
C     -0.927832    2.838937   -0.865240
C     -0.880520    1.552036   -0.602667
C     -1.162543    0.862534    1.734559
C     -2.436015    0.346698    1.212785
C      1.055315    3.286448    0.583300
C     -1.665143   -1.829362    0.435993
C     -0.208458   -1.549237    0.267526
C     -0.255274    3.753908    0.046674
C      2.499248   -1.305768   -0.080596
C      1.036977    1.851285    0.992537
C      0.381201   -0.316787    0.336945
C      1.734641   -0.168313    0.166326
C     -0.163452    1.065509    0.586772
N     -2.442350   -0.632790    0.205886
O     -0.771085    4.862285    0.344479
O      3.864210   -1.198114   -0.257975
O      2.090673    1.165791    0.281424
H     -3.710405   -1.937751   -0.791774
H     -4.548063   -0.926914    0.401233
H     -3.977510   -0.157782   -1.097436
H      4.276520   -2.921751   -1.358371
H      5.705880   -1.991184   -0.776294
H      4.728139   -2.923706    0.419232
H      0.102741   -3.633808   -0.032624
H      2.546670   -3.440257   -0.350170
H     -1.449967    3.247494   -1.730180
H     -1.390011    0.878693   -1.299649
H     -0.690828    0.254181    2.529835
H     -1.321694    1.894646    2.153095
H     -3.011944    1.236577    0.811518
H     -3.058944    0.003388    2.079978
H      1.807679    3.488669   -0.234298
H      1.391002    3.930698    1.431036
H     -1.939015   -2.552886   -0.360365
H     -1.886840   -2.308212    1.398877
H      1.238989    1.741711    2.086714
