52

C      4.050366   -2.388928   -2.557163
C     -3.991592   -0.196040    0.273961
C     -3.237196   -0.505406    2.558780
C      4.595490   -0.636780   -0.641450
C     -1.514104    1.579005   -0.967573
C      2.969119   -1.928454   -1.952604
C     -1.645186    2.255953    2.021251
C     -0.016177   -1.945219    0.404399
C     -1.439720   -1.526909    0.157845
C      1.658313    1.153371   -0.546150
C     -2.940124    1.703165    1.537133
C     -0.448938    1.953344    1.168689
C      2.611813    0.483234   -1.510024
C      2.360959   -1.276870    0.277155
C      0.892638   -1.042183    0.099457
C      0.444910    0.252752   -0.463078
C     -1.535383   -0.162332    0.849577
C     -2.913903    0.219047    1.238611
C      3.121506   -0.830511   -0.959529
C     -0.747360    0.880952    0.133346
H      3.961434   -3.188217   -3.284004
H      5.051247   -1.985431   -2.347127
H     -3.581808   -0.861429   -0.520761
H     -4.792943   -0.831709    0.756837
H     -4.571182    0.665833   -0.135774
H     -2.827000    0.100124    3.389800
H     -2.856582   -1.546595    2.549981
H     -4.331213   -0.566311    2.706064
H      5.038803   -0.096319   -1.489381
H      5.102943   -1.561534   -0.356029
H      4.669405    0.061493    0.242647
H     -2.488153    1.152896   -1.194079
H     -1.597205    2.673662   -0.804195
H     -0.940991    1.511956   -1.942417
H      2.013258   -2.364723   -2.199766
H     -1.760603    3.365761    2.066017
H     -1.506974    1.935062    3.086792
H      0.255206   -2.901271    0.799434
H     -1.558320   -1.447661   -0.938611
H     -2.163199   -2.214213    0.639815
H      1.332776    2.101726   -1.019265
H      2.133546    1.338120    0.433596
H     -3.674754    1.854725    2.384220
H     -3.412249    2.292490    0.701617
H     -0.035453    2.849502    0.672116
H      0.347846    1.577821    1.858104
H      2.008503    0.220389   -2.429958
H      3.456997    1.142336   -1.787931
H      2.494463   -2.353768    0.469672
H      2.725995   -0.674471    1.123118
H      0.204211    0.014006   -1.545958
H     -0.973434   -0.305441    1.827961
