34

C     -2.137342    3.986645   -0.198641
C      4.450004    0.088784   -0.003314
C      3.580552    1.000631    0.552058
C      3.941798   -0.903941   -0.835991
C      2.228179    0.926252    0.283652
C      2.600938   -0.952212   -1.082679
C     -2.021086   -2.871943   -0.505037
C     -2.346456   -3.335925    0.678801
C     -1.393271    2.818829    0.311114
C      1.684703   -0.039649   -0.533970
C     -1.442885   -1.559848   -0.753372
C     -2.121598   -2.495845    1.843257
C      0.237750   -0.156494   -0.841913
C     -1.718608   -0.631165    0.391008
C     -0.651154    0.453703    0.180873
O     -0.741667    2.962871    1.376812
O     -2.414446   -2.884628    3.013364
O     -1.357041    1.585421   -0.288580
O     -0.046206   -1.542529   -0.786519
O     -1.571745   -1.242458    1.639990
H     -2.614801    4.475040    0.684847
H     -1.518665    4.739951   -0.690180
H     -2.975790    3.708012   -0.873221
H      5.517687    0.105015    0.176358
H      3.975286    1.770942    1.198240
H      4.618252   -1.607005   -1.263337
H      1.585227    1.663527    0.736792
H      2.227230   -1.734864   -1.734930
H     -2.198935   -3.524112   -1.374686
H     -2.773469   -4.312766    0.828223
H     -1.797501   -1.097211   -1.696498
H      0.029936    0.201474   -1.883891
H     -2.743896   -0.223466    0.341191
H     -0.090982    0.628962    1.110180
