52

C      3.986970    2.271087    0.433267
C     -3.648056    1.469295   -0.475905
C     -3.673777    0.532336    1.754670
C      4.315270   -1.306223    0.918701
C     -1.246574   -0.275288   -1.906532
C      4.372694    1.021647    0.241788
C     -2.496172   -2.071842    0.360489
C      0.323186    1.537013    1.354208
C     -0.971955    1.779927    0.632621
C      1.552049   -1.245642   -0.665723
C     -3.448407   -1.016553   -0.123445
C     -1.076458   -1.889135   -0.065828
C      2.922785   -0.608808   -0.937379
C      2.413300    0.220778    1.394690
C      1.096513    0.599509    0.818644
C      0.631595   -0.073009   -0.395655
C     -1.583012    0.387928    0.501151
C     -3.060476    0.377981    0.350621
C      3.457842   -0.140518    0.397832
C     -0.810730   -0.427549   -0.473012
H      4.679700    3.087619    0.310532
H      2.967227    2.538376    0.720089
H     -4.215038    1.051976   -1.360371
H     -2.920521    2.257243   -0.783869
H     -4.451069    2.059533    0.062822
H     -3.202526   -0.178073    2.458390
H     -4.762403    0.468672    1.721200
H     -3.401723    1.559237    2.081737
H      4.216735   -1.370372    2.020823
H      3.977253   -2.261314    0.503559
H      5.375772   -1.165923    0.621972
H     -2.014591    0.471347   -2.087174
H     -1.547457   -1.256544   -2.329035
H     -0.384011    0.037182   -2.572179
H      5.397150    0.833833   -0.040590
H     -2.855961   -3.040398   -0.012909
H     -2.602295   -2.108284    1.478011
H      0.626175    2.067748    2.239556
H     -1.625923    2.473058    1.158604
H     -0.713922    2.115375   -0.390754
H      1.165907   -1.758774   -1.576720
H      1.680770   -1.908063    0.188894
H     -4.441992   -1.269982    0.352556
H     -3.649114   -1.041554   -1.203237
H     -0.786163   -2.571466   -0.880988
H     -0.419928   -2.092202    0.802486
H      3.619295   -1.327378   -1.398802
H      2.775154    0.272000   -1.596511
H      2.734458    1.033948    2.077999
H      2.245736   -0.673057    2.053185
H      0.858354    0.651164   -1.239761
H     -1.381634   -0.097859    1.510281
