45

C      0.202223    3.406593    0.183078
C      3.663972   -1.303554   -0.509429
C     -3.825322   -1.765257   -0.158268
C      1.616485    1.533143    0.841715
C      2.118398    1.004052   -0.461219
C     -1.954852    1.319005   -0.394927
C     -2.707524    0.382317    0.474445
C     -1.570146   -1.731226    0.807806
C      1.859769   -1.930533    0.968307
C      0.158457    1.939878    0.630232
C      2.170624   -1.509015   -0.426324
C      1.428028   -0.280242   -0.867372
C     -0.494513    1.131814   -0.453618
C     -0.255943   -0.931093    0.887634
C     -2.533205   -1.022758   -0.080848
C     -0.028428   -0.311365   -0.426090
O      0.633228   -1.749500    1.423821
O     -1.985113   -0.968715   -1.357336
O     -0.704575   -1.039603   -1.395435
H     -0.470708    3.539025   -0.710114
H     -0.187250    4.083954    0.952266
H      1.209009    3.708360   -0.136749
H      4.117491   -2.338546   -0.505668
H      3.984236   -0.819848   -1.437257
H      4.077901   -0.817600    0.412002
H     -4.629017   -1.067827    0.200266
H     -4.081256   -2.064372   -1.214376
H     -3.856835   -2.666925    0.476617
H      1.728046    0.789645    1.629383
H      2.226383    2.429640    1.095883
H      3.213418    0.827781   -0.467455
H      1.953024    1.812262   -1.230444
H     -2.155936    2.362833   -0.019468
H     -2.416647    1.296439   -1.410869
H     -3.790467    0.613642    0.382297
H     -2.461591    0.440195    1.541624
H     -2.006679   -1.797115    1.824941
H     -1.365535   -2.759215    0.446521
H      2.122191   -3.029458    1.041707
H      2.605093   -1.443888    1.665425
H     -0.364399    1.928364    1.587871
H      1.926797   -2.359212   -1.117005
H      1.464752   -0.284759   -1.992143
H     -0.135675    1.549215   -1.434702
H     -0.497907   -0.106529    1.623393
