45

C      0.502490   -3.524678   -0.582952
C     -3.370914    1.411429   -0.463792
C      3.525810    1.555935    1.247835
C     -1.594682   -2.374734   -0.213471
C     -2.296510   -1.029185   -0.459065
C      1.676332   -0.758213   -1.120470
C      2.736579    0.093569   -0.528532
C      1.389299    1.979876    0.169088
C     -1.565776    2.304015    0.866291
C     -0.219807   -2.188839   -0.735361
C     -2.488101    1.094288    0.705406
C     -1.659145   -0.113193    0.577597
C      0.559974   -1.073400   -0.111878
C      0.108934    1.379285   -0.435864
C      2.290382    0.896208    0.657222
C     -0.197315    0.101651    0.354838
O     -0.836958    2.353439   -0.283218
O      1.613203    0.143942    1.605450
O      0.328204    0.429661    1.640006
H      0.847832   -3.668381    0.462831
H      1.291459   -3.627150   -1.327945
H     -0.247413   -4.330298   -0.789350
H     -4.383883    1.785380   -0.131221
H     -3.559379    0.596349   -1.151899
H     -2.977019    2.264076   -1.092308
H      4.468222    1.083906    0.854537
H      3.564674    1.427900    2.346759
H      3.590450    2.628679    0.975881
H     -1.655560   -2.622458    0.854007
H     -2.110362   -3.126491   -0.823478
H     -2.066683   -0.751645   -1.484423
H     -3.341152   -1.194350   -0.211664
H      1.287299   -0.445466   -2.090697
H      2.146914   -1.771837   -1.310358
H      3.665631   -0.470610   -0.255847
H      3.058594    0.837510   -1.312622
H      1.122112    2.676120    1.013156
H      1.891440    2.542341   -0.621008
H     -1.029647    2.320552    1.803196
H     -2.239178    3.211010    0.866870
H     -0.283372   -2.008474   -1.830524
H     -3.162642    1.051573    1.611322
H     -1.745462   -0.695508    1.545194
H      1.142751   -1.579073    0.721490
H      0.222377    1.185287   -1.511032
