37

C      5.014801   -0.256588    0.072592
C     -2.426906    0.125485    1.559580
C     -3.189308    0.718506   -0.755486
C     -0.604143    2.146439    0.186354
C      3.770563   -0.595320   -0.700991
C     -1.146950   -1.004838   -1.693361
C     -0.610910    0.428480   -1.651754
C     -0.607142   -1.529800    0.645583
C     -1.731103   -1.283033   -0.338723
C      0.159480   -0.222361    0.555856
C      2.592626   -0.295145    0.169829
C     -2.119298    0.140371    0.098477
C     -0.741103    0.749628   -0.194411
O      2.713849    0.161145    1.337839
O      1.291249   -0.505043   -0.266018
H      5.495881   -1.157472    0.481062
H      5.683240    0.305581   -0.607756
H      4.768082    0.401631    0.949765
H     -2.898843   -0.852966    1.822967
H     -1.532939    0.331898    2.180583
H     -3.216545    0.889850    1.751901
H     -2.908934    1.663839   -1.260756
H     -3.580468   -0.051896   -1.433235
H     -4.046817    0.998574   -0.076040
H     -0.216944    2.762101   -0.660400
H     -1.603858    2.576432    0.445637
H      0.070671    2.348259    1.063209
H      3.819963   -1.693138   -0.930025
H      3.704065   -0.087110   -1.676178
H     -0.289373   -1.720351   -1.836940
H     -1.836855   -1.156409   -2.523326
H     -1.178539    1.095264   -2.312555
H      0.482414    0.440057   -1.893077
H      0.001639   -2.399507    0.383921
H     -0.987030   -1.660998    1.677794
H     -2.542045   -1.980864   -0.299554
H      0.447532    0.169302    1.543254
