27

C     -3.585118   -0.341469   -0.141531
C      3.817600    0.637324    0.165705
C      2.581923    1.093006    0.292023
C      0.731655   -0.479854    0.792740
C     -2.170665   -0.068872    0.386394
C     -0.284938   -1.150543   -0.141066
C      3.789675   -0.667897   -0.484146
C     -1.460873    0.827888   -0.580231
C     -0.378227   -0.067649   -1.195480
C      1.660166    0.084108   -0.282966
O      4.830536   -1.336793   -0.731973
O     -2.311618    1.286141   -1.578793
O     -1.521197   -1.273016    0.432268
O      2.459536   -0.974962   -0.743903
O      0.809590    0.606763   -1.218374
H     -3.431987   -0.830983   -1.138253
H     -4.109031   -1.020120    0.550310
H     -4.113734    0.609721   -0.271302
H      4.711776    1.167358    0.500903
H      2.235873    2.017359    0.722710
H      1.230718   -1.189622    1.443324
H      0.226800    0.351426    1.284387
H     -2.225094    0.345884    1.419888
H      0.095562   -2.092969   -0.552915
H     -1.002486    1.691901   -0.059955
H     -0.701550   -0.457365   -2.174658
H     -1.884890    1.233235   -2.448647
