27

C      3.347922    0.392409    0.637919
C     -3.411963   -0.756559    0.905419
C     -2.161140   -0.346596    0.923917
C     -0.472456   -1.244157   -0.654599
C      1.937491    0.017396    0.338808
C      0.560578   -0.421183   -1.359528
C     -3.791502   -0.989370   -0.471518
C      0.984432    1.179383    0.321240
C      0.191843    0.981021   -0.938249
C     -1.607072   -0.273986   -0.446454
O     -4.935075   -1.392681   -0.849070
O      1.633546    2.406826    0.364275
O      1.840228   -0.612090   -0.897873
O     -2.688521   -0.690814   -1.251335
O     -1.163569    0.987103   -0.769601
H      4.006135   -0.254809   -0.012657
H      3.643716    0.122624    1.685405
H      3.612630    1.430673    0.432375
H     -4.065344   -0.900831    1.779341
H     -1.645345   -0.104918    1.850279
H     -0.754933   -2.120464   -1.273202
H     -0.137780   -1.588848    0.348474
H      1.582056   -0.701736    1.109386
H      0.520752   -0.557187   -2.457673
H      0.275542    1.164630    1.174493
H      0.521791    1.666782   -1.762714
H      2.176038    2.607383   -0.415077
