37

C      5.054850   -0.199363    0.390386
C     -3.313777   -0.395923    0.223533
C     -2.162744    1.585317    1.054592
C     -0.707501   -1.017994    1.729683
C      3.864540   -0.623048   -0.433530
C     -1.516087   -0.581734   -1.885708
C     -0.864500   -1.392808   -0.754543
C     -0.340707    1.392209   -1.093764
C     -1.700786    0.799680   -1.287447
C      0.273184    0.592973    0.062402
C      2.655963    0.088500    0.094842
C     -2.058112    0.405284    0.153782
C     -0.807636   -0.422881    0.400186
O      2.729316    0.884201    1.065819
O      1.395679   -0.094565   -0.460249
H      4.850041    0.845609    0.731346
H      5.949343   -0.227742   -0.275416
H      5.155127   -0.874940    1.261363
H     -4.064530    0.037884   -0.471601
H     -3.734689   -0.258626    1.259033
H     -3.172391   -1.483435    0.076009
H     -3.198980    1.977877    0.989127
H     -1.485461    2.420854    0.807194
H     -2.018073    1.269934    2.104487
H     -0.774889   -2.140642    1.752419
H     -1.462823   -0.661819    2.453596
H      0.298255   -0.762526    2.173217
H      3.735136   -1.718068   -0.410318
H      4.055582   -0.329525   -1.497216
H     -2.510433   -0.998338   -2.092277
H     -0.896420   -0.578881   -2.788278
H     -1.411867   -2.309728   -0.539551
H      0.204726   -1.620310   -1.025014
H     -0.342199    2.475501   -0.881031
H      0.239799    1.259311   -2.030148
H     -2.436455    1.413050   -1.764293
H      0.519517    1.244711    0.907364
