41

C     -3.787880    2.609129    0.536709
C      5.785456    0.540890    0.519630
C     -2.199049   -2.603040   -0.819584
C     -0.972228   -3.050254   -0.053639
C      2.100131    2.036157   -1.120170
C     -2.575137   -1.238118   -0.361816
C      0.934402    1.300555   -0.878078
C      3.302818    1.578275   -0.602067
C      0.096776   -2.044199   -0.450122
C      2.169091   -0.269276    0.348289
C     -2.037559    0.971319    0.484307
C      0.951144    0.155512   -0.151695
C     -1.510884   -0.200272   -0.352296
C      3.341595    0.426131    0.132189
C     -0.221092   -0.703128    0.162956
N     -3.235796    1.448400   -0.155446
O     -0.296609   -0.845751    1.565311
O      4.531750   -0.046419    0.655702
H     -3.070072    3.431817    0.533410
H     -4.090940    2.269348    1.544097
H     -4.700254    2.933061   -0.003242
H      5.910174    1.162714   -0.402405
H      6.566761   -0.268393    0.403890
H      6.101470    1.104276    1.424676
H     -2.014890   -2.634482   -1.916429
H     -3.018601   -3.293248   -0.543532
H     -1.202202   -2.954466    1.027293
H     -0.624549   -4.048785   -0.330290
H      2.043680    2.936080   -1.699145
H     -3.447173   -0.932085   -1.017990
H     -2.984761   -1.318482    0.680335
H      0.018090    1.650218   -1.277177
H      4.191167    2.169907   -0.806062
H      0.002770   -1.912165   -1.554851
H      1.108601   -2.407402   -0.229285
H      2.243254   -1.173887    0.933717
H     -2.379162    0.577481    1.488911
H     -1.289134    1.723674    0.709425
H     -1.347753    0.152216   -1.407151
H     -3.968967    0.680448   -0.041522
H     -0.424440    0.086244    1.923972
