45

C      3.942068   -0.021566    2.166960
C      4.559720    0.868953   -0.026053
C      0.490609   -2.557488   -1.492732
C     -4.947128    0.779709    0.608357
C      1.630192    0.971064   -0.693082
C     -1.876925   -1.427304    0.062918
C      2.165548    0.790079    0.706513
C      1.463722   -0.347208   -1.366479
C     -0.812295   -0.621144   -0.554758
C     -3.174322   -0.746817    0.116663
C     -2.771669    1.759551    0.443433
C      3.502128    0.106791    0.720610
C      0.523445   -1.302229   -0.673124
C     -3.412585    0.494874    0.846877
O     -3.013058    2.067155   -0.912422
H      3.276090   -0.788676    2.634928
H      3.851563    0.929996    2.699715
H      4.993577   -0.420536    2.173796
H      5.566114    0.676473    0.382213
H      4.562257    0.525974   -1.083134
H      4.305990    1.956637   -0.026873
H     -0.371901   -2.660483   -2.145500
H      0.534086   -3.447575   -0.800858
H      1.405030   -2.663640   -2.134221
H     -5.520709   -0.029899    1.079109
H     -5.072120    0.680653   -0.489414
H     -5.198571    1.763761    1.010571
H      0.697629    1.528054   -0.696062
H      2.365027    1.565208   -1.303684
H     -1.575164   -1.918732    1.022531
H     -2.033156   -2.333432   -0.613508
H      2.316258    1.816974    1.122382
H      1.462552    0.210510    1.304079
H      1.143699   -0.184437   -2.438663
H      2.492798   -0.793080   -1.475283
H     -1.118059   -0.236171   -1.524077
H     -0.621251    0.254301    0.116516
H     -3.547874   -0.581896   -0.960438
H     -3.995490   -1.471388    0.475458
H     -3.418071    2.577509    0.962446
H     -1.783522    2.008405    0.784517
H      3.412438   -0.931407    0.336925
H      0.913241   -1.497506    0.334246
H     -3.364872    0.361546    1.946327
H     -3.947037    2.288440   -1.046748
