58

C      2.314610   -4.880416   -0.432744
C      3.838742    2.868584    2.088604
C      4.654903    1.987559    1.427121
C      2.478726    2.597687    2.153949
C      4.522256   -1.022448   -2.489158
C      4.482878   -2.394526   -2.734578
C     -6.195065    2.921989    0.776587
C     -2.107203    2.181713   -1.643577
C      4.135805    0.861399    0.842327
C      1.950568    1.483645    1.576141
C     -5.230603    3.454459   -0.053928
C     -6.025984    1.690176    1.366179
C     -2.996228    3.257539   -1.170395
C      3.724935   -0.465393   -1.522588
C      3.624185   -3.200874   -1.991563
C     -1.804879    1.080907   -0.664794
C     -4.367328   -0.260099    1.533234
C      2.799017    0.593095    0.901913
C     -4.063227    2.716904   -0.292795
C     -4.883812    0.952651    1.141236
C      2.859052   -1.236408   -0.755970
C      2.844897   -2.603843   -1.037163
C     -3.116017   -0.388682    0.912525
C      2.116751   -0.504544    0.253557
C     -3.940407    1.507246    0.309444
C     -0.013730   -1.769764    0.006749
C     -2.269580   -1.552433    1.101431
C      0.630768   -3.126884    0.144495
N      0.874486   -0.725745    0.525233
N     -1.196234   -1.746447    0.630653
N      1.893857   -3.506049   -0.417965
N     -2.885734    0.697232    0.176469
O     -2.790776   -2.587650    1.956129
O      0.046520   -3.991463    0.783217
H      2.060651   -5.392341   -1.387481
H      1.743295   -5.420288    0.346113
H      3.384779   -5.005315   -0.165255
H      4.201208    3.779368    2.571011
H      5.722952    2.223619    1.389123
H      1.814831    3.283329    2.674124
H      5.182442   -0.395755   -3.060611
H      5.118487   -2.810510   -3.496871
H     -7.111458    3.505418    0.961252
H     -2.477179    1.790680   -2.621517
H     -1.107130    2.641812   -1.902480
H      4.861218    0.174085    0.390075
H      0.900811    1.268427    1.623398
H     -5.346507    4.406038   -0.517220
H     -6.770368    1.246824    2.024324
H     -3.480156    3.744721   -2.051555
H     -2.426937    4.054002   -0.621324
H      3.687880    0.618231   -1.354079
H      3.568697   -4.263949   -2.151416
H     -1.516609    0.207150   -1.329060
H     -0.894442    1.316577   -0.081985
H     -4.869546   -0.948172    2.196790
H     -0.015854   -1.604193   -1.122236
H     -2.137210   -3.308874    2.286907
