126

C      0.227298   -0.458228    2.184113
C     -1.227759   -0.094831    2.051715
C     -6.590333    1.550422   -1.848828
C      0.862881   -0.862373    0.874314
C     -6.339251    0.383274   -2.536630
C     -1.968205   -1.274394    1.517213
C     -6.450328    1.568576   -0.487195
C     -6.015697    0.595658    1.682149
C      0.792150    0.244255   -0.137473
C     -5.954949   -0.713188   -1.790593
C     -3.472119   -0.977757    1.359835
C     -5.385822   -0.428481    2.521971
C      5.643912    0.825688    0.226243
C      5.652992    0.489980   -2.120244
C      2.811236   -0.275048   -1.289173
C      4.960744    0.791226   -0.972768
C     -6.059838    0.439050    0.230437
C      6.979465    0.569946    0.300660
C      7.008265    0.231795   -2.036846
C      3.495714    1.068353   -1.042527
C      7.691887    0.266419   -0.834848
Cl     7.794755    0.628423    1.851114
Cl     7.912490   -0.153639   -3.484367
N      9.091203   -0.003399   -0.770695
N      1.389559   -0.128616   -1.381726
N     -5.828968   -0.660057   -0.470720
O      3.212632    1.939498   -2.073794
O     -4.060174   -0.652482    2.502320
C     -0.076953   -1.279645    0.321368
C     -1.413694   -2.009313    0.347821
C     -7.906957    1.606980    0.067589
C     -0.169579    0.141889   -0.078098
C     -7.540742    2.910465    0.240000
C     -2.023601   -2.026831   -1.027765
C     -6.909967    0.627050    0.008835
C     -4.475438   -0.032798    0.054490
C      1.108184    0.916591   -0.102487
C     -6.199139    3.229900    0.351811
C     -3.294952   -2.818716   -1.026235
C     -5.032501   -1.399283   -0.173877
C      6.218023   -0.632905   -0.420217
C      5.312735    1.268535    0.643562
C      2.913080   -0.565898   -0.885617
C      5.116544   -0.009005    0.181318
C     -5.593895    0.964385    0.120975
C      7.440345   -0.064089   -0.570929
C      6.554211    1.870495    0.500283
C      3.846954   -0.708595    0.295446
C      7.626697    1.237746   -0.095311
Cl     8.787297   -0.907091   -1.347170
Cl     6.778620    3.520917    1.102263
N      8.889826    1.859957   -0.232804
N      2.133831    0.575390   -0.963627
N     -5.287850    2.270048    0.290639
O      3.200527   -0.625670    1.521051
O     -4.259401   -2.453949   -0.235932
C     -0.548938   -0.067288   -0.412035
C      0.543945    0.082244    0.334088
C     -1.855743    0.222427    0.166443
C      1.853262   -0.205704   -0.238218
O     -1.972375    0.610170    1.353971
O     -2.986343    0.063517   -0.618602
O      1.980370   -0.593952   -1.424759
O      3.004981   -0.058044    0.516972
H      0.810736    0.335096    2.695688
H      0.338608   -1.358099    2.857908
H     -1.641928    0.266120    3.025584
H     -1.300068    0.761670    1.353308
H     -6.900523    2.461604   -2.382544
H      0.357528   -1.758846    0.461067
H      1.921811   -1.192141    1.041308
H     -6.443086    0.341728   -3.623897
H     -1.634344   -1.512654    0.494023
H     -1.894119   -2.185007    2.135830
H     -6.653229    2.500923    0.043478
H     -5.515508    1.601915    1.873636
H     -7.084708    0.812782    2.000224
H     -0.297091    0.503942   -0.343538
H      1.235006    1.186707    0.253172
H     -5.763583   -1.623350   -2.373832
H     -3.558393   -0.090691    0.655647
H     -3.875534   -1.903451    0.928094
H     -5.743508   -0.219960    3.597750
H     -5.944024   -1.417859    2.302055
H      5.085094    1.066056    1.132683
H      5.157748    0.450254   -3.078635
H      3.097808   -1.012885   -0.521392
H      3.193248   -0.686254   -2.264471
H      3.196110    1.456417   -0.072511
H      9.743825    0.750359   -0.504416
H      9.451035   -0.953838   -0.991109
H      0.940570   -0.975445   -1.775424
H      3.546776    1.666611   -2.943348
H      0.516644   -1.882880   -0.411464
H      0.394741   -1.395752    1.320082
H     -2.085207   -1.603495    1.125392
H     -1.179693   -3.066027    0.629769
H     -8.934749    1.351230   -0.021823
H     -0.722788    0.287853   -1.046565
H     -0.859220    0.637916    0.677071
H     -8.287870    3.717539    0.292091
H     -1.250292   -2.570397   -1.669534
H     -2.172050   -1.028678   -1.421574
H     -7.227156   -0.405388   -0.127569
H     -3.905096   -0.053079    1.005307
H     -3.810498    0.311326   -0.765972
H      1.415221    1.010157    0.982939
H      0.797755    1.989055   -0.337394
H     -5.911193    4.281013    0.489315
H     -3.592325   -2.895994   -2.131881
H     -2.972586   -3.908417   -0.833943
H     -5.755212   -1.321757   -1.073703
H     -5.793369   -1.570010    0.666985
H      6.095606   -1.657871   -0.798534
H      4.520531    1.844381    1.128197
H      2.478477   -1.516935   -1.133477
H      3.684651   -0.440655   -1.774259
H      4.126435   -1.833977    0.253384
H      9.639708    1.666080    0.453129
H      9.052974    2.505778   -1.019882
H      2.380656    1.266129   -1.710987
H      3.613699   -1.183703    2.212085
H     -0.425852   -0.401912   -1.431224
H      0.409879    0.417610    1.352847
H     -3.890106    0.325966   -0.210377
H      3.886921   -0.395033    0.144180
