58

C     -2.004400   -3.086532   -2.242939
C     -5.831084    3.947697    0.266319
C     -5.971832    2.666914    0.797676
C     -4.765422    4.187023   -0.577773
C     -3.060514   -1.237989    2.196879
C     -2.670771   -2.483505    1.692235
C      4.818782    0.321420    3.495107
C      5.637591   -0.740410   -1.107042
C     -5.078360    1.666974    0.493566
C     -3.874736    3.179963   -0.875950
C      5.695685   -0.286884    2.585404
C      3.536250    0.678187    3.125858
C      6.164418   -1.164125    0.258757
C     -3.128243   -0.115611    1.404835
C     -2.335094   -2.614733    0.351538
C      4.182698   -0.964129   -1.268314
C      1.940376    0.631872    1.108497
C     -4.023299    1.885303   -0.332446
C      5.281130   -0.535374    1.305049
C      3.107711    0.426317    1.820353
C     -2.795361   -0.276010    0.081456
C     -2.400582   -1.494567   -0.446716
C      2.141282    0.155731   -0.166975
C     -2.960934    0.964110   -0.667454
C      3.994817   -0.164287    0.980464
C     -0.976260    0.662139   -2.182621
C      1.214847    0.140165   -1.292754
C     -1.396752   -0.725756   -2.633033
N     -2.145332    1.366517   -1.611689
N      0.025959    0.614347   -1.170654
N     -1.928908   -1.744385   -1.788816
N      3.426820   -0.331744   -0.210844
O      1.571783   -0.379487   -2.527342
O     -1.265580   -1.006852   -3.859386
H     -1.110755   -3.705554   -1.932989
H     -2.000345   -3.126357   -3.351048
H     -2.948670   -3.605748   -1.941304
H     -6.506833    4.753338    0.479347
H     -6.822367    2.519824    1.456407
H     -4.605231    5.179634   -1.027801
H     -3.315732   -1.156318    3.232895
H     -2.619099   -3.368426    2.318615
H      5.142980    0.518216    4.503184
H      6.204005   -1.340431   -1.858759
H      5.850423    0.334762   -1.269712
H     -5.285025    0.698973    0.889168
H     -3.048009    3.388929   -1.539226
H      6.683051   -0.553404    2.895588
H      2.835838    1.145634    3.789102
H      6.257875   -2.244687    0.369340
H      7.170050   -0.713361    0.361280
H     -3.375132    0.860255    1.797944
H     -2.027015   -3.529546   -0.114593
H      3.912939   -2.059427   -1.194063
H      3.889869   -0.571724   -2.266404
H      1.047032    1.083225    1.497496
H     -0.661401    1.270715   -3.028547
H      1.204866    0.079181   -3.351930
