66

C     -5.867967   -0.319276    1.698186
C     -6.180714   -0.965638    0.368950
C     -2.761381   -1.826206   -1.158277
C     -3.192546   -2.798236   -1.989950
C      4.845745    0.751892   -1.083038
C      4.966669    0.167621    1.340668
C      5.853290   -0.337275   -1.376856
C      5.894422   -0.984441    1.006734
C      0.541055    0.719148    0.663682
C     -0.161892    0.739109   -1.800140
C     -0.929890    1.096788    0.888236
C     -1.605035    0.859249   -1.303523
C      3.015721   -0.558560   -0.034381
C     -5.828145    2.045685    1.566222
C     -4.046252    3.312819    0.733545
C      4.069370    0.492986    0.170940
C     -5.091462    0.926366    1.317164
C     -5.324015    3.277567    1.280048
C     -4.996877   -1.438835   -0.344271
C     -3.649758   -1.144895   -0.337817
C     -4.527513   -3.125567   -2.031960
C      2.016378   -0.207870   -1.062134
C     -5.405861   -2.446268   -1.214019
C     -3.826929    0.988443    0.775499
C     -2.948290   -0.130360    0.484685
C      8.051804   -0.647402   -0.212817
Br    -6.336297    4.847992    1.620869
Br    -7.242665   -2.934507   -1.306242
Cl    -5.034993   -4.395417   -3.130043
N      8.795831   -0.439830    0.817644
N     -3.366233    2.205545    0.508396
N      0.764694    0.431911   -0.745229
N     -1.660082    0.211533   -0.028663
N      6.633539   -0.656480   -0.194679
O      2.249835   -0.468150   -2.248885
O      8.728309   -0.878132   -1.426364
H     -5.243220   -1.015829    2.280407
H     -6.802883   -0.016576    2.161951
H     -6.736820   -0.245454   -0.239004
H     -6.872175   -1.836569    0.554879
H     -1.712692   -1.571280   -1.106227
H     -2.455938   -3.308190   -2.619162
H      4.149083    0.815694   -1.934205
H      5.391858    1.719178   -1.049557
H      5.535907    1.080534    1.599970
H      4.334941   -0.154887    2.168451
H      5.364057   -1.247069   -1.765665
H      6.527395    0.028062   -2.167971
H      5.246508   -1.875514    0.869774
H      6.560374   -1.137719    1.871620
H      0.703225   -0.167546    1.309558
H      1.128432    1.572098    1.022540
H      0.160561    1.667066   -2.312372
H     -0.073771   -0.065466   -2.559098
H     -1.227252    0.925276    1.919843
H     -1.016215    2.137948    0.544565
H     -2.286553    0.507587   -2.068913
H     -1.702378    1.972712   -1.120056
H      2.568175   -0.887028    0.926838
H      3.568030   -1.471413   -0.402738
H     -6.836579    1.968087    2.000969
H     -3.648688    4.299565    0.506269
H      3.573554    1.471841    0.440579
H     -2.739304   -0.649106    1.469822
H      8.391778   -0.260617    1.754724
H      9.708725   -0.626699   -1.552405
