62

C     -4.609654   -3.379367    1.375099
C     -6.297636    2.884676   -0.021749
C     -4.599434   -3.222480   -0.004634
C     -4.104675   -2.369887    2.173820
C     -5.026820    3.353170   -0.281176
C     -6.525653    1.527847    0.150003
C     -4.099110   -2.085811   -0.599010
C     -3.613124   -1.252400    1.574440
C     -3.953174    2.501952   -0.378189
C     -5.424956    0.704771    0.046141
C      0.432659    1.055837    0.567424
C     -0.074879   -0.850059   -0.786743
C     -1.022819    1.446214    0.214297
C     -1.141781   -0.946961    0.321656
C      2.217255   -0.039162   -0.703997
C      4.080572    0.735932   -2.143227
C      5.499010   -2.690283    0.227397
C      5.726368    1.704910   -0.522166
C     -3.608358   -1.105946    0.190964
C     -4.129499    1.163424   -0.217209
C      2.672556    1.011359   -1.680809
C      6.301069   -0.126888    0.555640
C     -3.055337    0.191525   -0.308501
C      6.824405   -1.100402    1.367965
C      5.369968   -0.443913   -0.425771
N      7.780056   -0.808697    2.386619
N      6.407345   -2.375345    1.184123
N      4.995456   -1.725573   -0.559940
N      6.502772    1.192879    0.477434
N      0.903255    0.026518   -0.255605
N     -1.839535    0.324310    0.320360
N      5.031115    0.703976   -1.077063
O      2.598537    2.291584   -1.168127
H     -4.996888   -4.263566    1.872540
H     -7.132277    3.546905    0.053479
H     -5.010727   -4.053206   -0.589075
H     -4.092998   -2.449607    3.264887
H     -4.808532    4.406685   -0.421824
H     -7.510362    1.146116    0.351934
H     -4.090371   -1.962210   -1.666528
H     -3.218208   -0.460108    2.232424
H     -2.946303    2.871100   -0.587928
H     -5.641137   -0.366025    0.189556
H      0.480434    0.726070    1.634198
H      1.066794    1.951105    0.494112
H     -0.518235   -0.479571   -1.712140
H      0.355915   -1.859372   -0.891609
H     -1.272074    2.212737    0.955738
H     -0.928842    1.785996   -0.833285
H     -0.633973   -1.047167    1.287928
H     -1.772507   -1.798921    0.069022
H      2.370945   -1.052003   -1.190371
H      2.908098   -0.044565    0.170088
H      4.347355    1.575554   -2.849397
H      4.069158   -0.203142   -2.740437
H      5.192704   -3.734245    0.117071
H      5.688764    2.752570   -0.806570
H      2.018634    0.968979   -2.605406
H     -2.882764    0.000945   -1.411979
H      7.779872    0.108490    2.860337
H      8.484304   -1.519115    2.660032
H      2.477268    2.941861   -1.906262
