51

C     -4.682344    2.628439    0.497208
C      0.984020   -2.920793    0.104057
C     -4.924112    1.170910    0.717125
C      4.346369   -0.964122    0.390226
C      4.587538    1.371931    0.704760
C     -2.845564   -1.433490   -1.184296
C      5.698607   -1.064138    0.156043
C      5.955534    1.264046    0.468431
C     -1.627508   -1.907838   -0.770400
C     -4.356287    0.453823   -1.601214
C     -2.005807    0.759141   -0.846951
C      2.356005    0.323688    1.069389
C      3.766055    0.280380    0.676142
C     -3.031388   -0.075500   -1.217339
C     -5.348448    0.422798   -0.495504
C      6.507371    0.052173    0.198394
C     -0.757510    0.311666   -0.422151
C     -0.594428   -1.042808   -0.394351
C      0.373700    1.200314   -0.170783
C     -5.845050   -0.904319   -0.114980
C      7.990410   -0.019420    0.005764
F      8.383299    0.871103   -0.957087
F      8.369722   -1.319604   -0.243594
F      8.552912    0.427729    1.211820
N      1.449159    1.053221    0.389098
O      0.179066    2.537833   -0.707187
O     -6.944690   -1.375022   -0.516620
O     -5.072776   -1.695571    0.732985
O      0.567289   -1.614251   -0.007014
H     -5.095268    2.962257   -0.452310
H     -5.168431    3.167581    1.368514
H     -3.592879    2.838765    0.637569
H      1.503744   -3.048209    1.106594
H      1.742007   -3.179044   -0.700627
H      0.171760   -3.668521    0.116192
H     -5.702453    1.017027    1.518556
H     -4.015454    0.640540    1.124471
H      3.736713   -1.852072    0.348458
H      4.225681    2.370551    0.908094
H     -3.651848   -2.122025   -1.488960
H      6.162692   -2.012122   -0.060173
H      6.579967    2.154245    0.497071
H     -1.510392   -2.982476   -0.743747
H     -4.271124    1.525629   -1.932872
H     -4.788414   -0.067518   -2.494197
H     -2.141531    1.824710   -0.903012
H      2.485936    0.991315    2.101047
H      2.065132   -0.627077    1.615373
H     -6.274621    0.950388   -0.938009
H      0.958979    2.927589   -1.274394
H     -5.451339   -2.603850    0.997607
