47

C     -1.530492   -0.850161    0.255179
C     -0.355733    0.029840    0.612375
C     -2.830065   -0.096283    0.222825
C      0.872039   -0.847558    0.600143
C     -3.940307   -1.064240   -0.155206
C      2.138530   -0.105888    0.928153
C     -5.356139    0.962561    0.044034
C     -6.549473    1.673462   -0.005139
C     -7.642742   -0.400510   -0.609509
C      4.594044   -0.486224    1.187899
C      5.457767    1.383148   -0.212741
C     -5.250196   -0.370159   -0.213355
C     -7.687548    0.950413   -0.339875
C      3.270431   -1.130355    0.875018
C     -6.407899   -1.043524   -0.541034
C      6.053143    1.694638   -1.524900
C      4.118350   -0.493389   -1.104209
C      5.205498   -0.112174   -0.154708
Cl    -9.209845    1.787162   -0.426535
Cl    -6.358260   -2.745931   -0.880052
O      7.076000    1.064130   -1.935668
O      5.521037    2.670573   -2.338900
O      3.876655    0.007912   -2.254629
O      6.326578   -0.847421   -0.467396
O      3.415451   -1.509674   -0.477823
H     -1.637679   -1.636558    1.043032
H     -1.363640   -1.385326   -0.695217
H     -0.280183    0.810913   -0.196018
H     -0.487552    0.577912    1.544415
H     -2.765028    0.651345   -0.583435
H     -3.077445    0.369347    1.194472
H      1.012209   -1.246392   -0.435940
H      0.773773   -1.696446    1.297841
H     -3.995257   -1.878630    0.587154
H     -3.727105   -1.542264   -1.149106
H      2.124205    0.438256    1.884748
H      2.410308    0.636184    0.134834
H     -4.466895    1.534259    0.316703
H     -6.609983    2.734376    0.195584
H     -8.526342   -0.953183   -0.860293
H      4.491394    0.417349    1.860156
H      5.277357   -1.231528    1.676875
H      6.220974    1.606296    0.584454
H      4.566433    1.957554    0.020319
H      3.041865   -2.016429    1.503585
H      6.041817    3.172940   -3.061495
H      6.169949   -1.440322   -1.258360
