69

C     -2.800523    2.697307   -2.289074
C     -4.526689   -1.044733   -2.488999
C      8.759556   -1.281911    2.195850
C      7.277710    0.563097    3.051349
C     -8.994914   -0.569172    2.594891
C     -2.842704    1.232345   -2.763966
C     -0.441882   -0.013163   -1.575742
C      0.792891    0.264734   -0.702161
C     -4.321439   -0.370770    1.338213
C     -5.733527   -1.810846    0.160655
C     -5.385659    0.043178    2.143145
C     -6.781024   -1.404705    0.951629
C      4.732003    0.279840    1.262324
C      5.567389    0.393231   -1.091294
C     -1.611344    0.612490   -0.864950
C      3.411288    0.597134    0.574258
C      4.487712   -0.670190   -1.259130
C     -3.335451   -1.754089   -0.539600
C     -3.188499   -0.923361   -1.802607
C     -4.441948   -1.290469    0.337511
C      5.903911    0.590991    0.370747
C     -6.632948   -0.479258    1.948829
C      2.015486   -0.304343   -1.310000
C      7.022944   -0.310872    0.728250
N      7.664757   -0.332533    1.974061
N     -2.886090    0.447402   -1.549462
N      3.278492   -0.132474   -0.681159
O      1.976867   -0.947352   -2.384838
O      7.425532   -1.125371   -0.171552
O     -7.687144   -0.060280    2.755813
H     -1.787380    3.096464   -2.295987
H     -3.199860    2.784631   -1.258876
H     -3.505658    3.280545   -2.929012
H     -4.544097   -0.653649   -3.527467
H     -4.814597   -2.124606   -2.616156
H     -5.264030   -0.482045   -1.883395
H      9.704723   -0.731427    1.986220
H      8.698618   -2.134074    1.491084
H      8.699973   -1.665245    3.221808
H      8.190147    0.691713    3.699312
H      6.460828    0.150535    3.661459
H      7.054473    1.549701    2.604820
H     -9.717216    0.072195    3.145599
H     -9.278926   -0.598359    1.511934
H     -9.080771   -1.576480    3.046028
H     -3.673907    1.090334   -3.449653
H     -1.918184    1.071194   -3.337667
H     -0.583001   -1.118395   -1.541092
H     -0.251436    0.324059   -2.585706
H      0.619134   -0.163475    0.325698
H      0.899977    1.360587   -0.540773
H     -3.386471    0.087691    1.570423
H     -5.928315   -2.547420   -0.597908
H     -5.243488    0.774030    2.922962
H     -7.796099   -1.808443    0.818243
H      4.706914   -0.771534    1.596728
H      4.797794    0.938172    2.152933
H      6.445635    0.145951   -1.704866
H      5.156868    1.362792   -1.458481
H     -1.602187    0.250606    0.151990
H     -1.429173    1.708728   -0.840584
H      2.589156    0.234914    1.228281
H      3.363848    1.678091    0.450570
H      4.343439   -0.799444   -2.357743
H      4.796125   -1.627122   -0.817323
H     -3.625983   -2.781992   -0.890796
H     -2.389858   -1.880002   -0.000287
H     -2.427362   -1.450764   -2.430612
H      6.215595    1.653011    0.565303
