41

C     -2.381960   -1.905452    0.407569
C     -2.546260   -0.129610   -1.231099
C      0.268270    1.706917   -0.833391
C     -1.587712    1.633438    1.414278
C      1.584413   -1.596572   -1.062416
C      0.117186   -1.178883   -1.262478
C     -2.340173    0.369400    1.213758
C     -0.127849    1.346635    1.538101
C      3.749263   -0.542921   -0.296754
C      2.351179   -0.371872   -0.799503
C     -0.393609   -0.574218    0.001730
C      1.763667    0.285950    0.458408
C      2.751776    1.304344    0.702488
C     -1.876881   -0.483648    0.090004
C      0.346801    0.705974    0.266226
O      2.674994    2.478406    1.157521
O      3.983293    0.733832    0.310815
H     -1.619217   -2.362196    1.093431
H     -2.365801   -2.509561   -0.514830
H     -3.346176   -1.881130    0.924266
H     -2.016099   -0.591565   -2.066512
H     -2.726832    0.955038   -1.335163
H     -3.578109   -0.592426   -1.235274
H      0.981957    2.538342   -0.553928
H      0.629372    1.350656   -1.816018
H     -0.695506    2.180111   -0.987317
H     -1.915489    2.056657    2.408977
H     -1.839431    2.421213    0.680682
H      1.628562   -2.281238   -0.214969
H      1.940083   -2.070135   -2.005931
H      0.018898   -0.561923   -2.158392
H     -0.452988   -2.123020   -1.452181
H     -3.439978    0.541745    1.079020
H     -2.271330   -0.231941    2.164080
H      0.417836    2.293034    1.717110
H      0.008701    0.632621    2.370785
H      3.731412   -1.333758    0.492954
H      4.483562   -0.743820   -1.084328
H      2.386013    0.331554   -1.647574
H     -0.074004   -1.278490    0.831735
H      1.778166   -0.521485    1.234121
