41

C     -2.391398    1.445238    1.286529
C     -2.018619    1.228139   -1.114055
C      0.091512   -0.936620   -1.498521
C     -1.783947   -2.027393    0.265834
C      1.661405    1.690137   -0.357765
C      0.388342    1.691830    0.412094
C     -2.536373   -0.766696    0.297308
C     -0.347129   -1.982109    0.635395
C      3.771819    0.341897    0.070182
C      2.378034    0.432283   -0.511073
C     -0.335333    0.424919    0.576809
C      1.747807   -0.667583    0.357511
C      2.692083   -1.723694    0.106477
C     -1.794486    0.512672    0.210090
C      0.350511   -0.793428   -0.036309
O      2.472018   -2.950978   -0.054921
O      3.953581   -1.086670    0.076756
H     -2.433480    2.493962    0.906274
H     -3.455140    1.160922    1.471430
H     -1.825341    1.400421    2.217228
H     -2.756648    0.651085   -1.746007
H     -2.518723    2.226560   -0.984108
H     -1.090596    1.436615   -1.656370
H     -0.980098   -0.957198   -1.720254
H      0.481756   -1.948560   -1.790139
H      0.567685   -0.218839   -2.151210
H     -2.259551   -2.808445    0.936488
H     -1.844529   -2.523098   -0.750192
H      1.435348    2.090413   -1.393769
H      2.384586    2.463822    0.043536
H      0.619565    2.188931    1.405799
H     -0.331496    2.435561   -0.051204
H     -3.241027   -0.804346    1.183119
H     -3.258107   -0.779044   -0.577672
H     -0.214375   -1.965543    1.727942
H      0.149939   -2.890357    0.260893
H      4.453333    0.816384   -0.658662
H      3.847848    0.749524    1.086255
H      2.493287    0.074126   -1.572233
H     -0.348715    0.187114    1.687900
H      1.824654   -0.311952    1.402619
