23

C      2.656245   -0.556751    0.254546
C      0.752127    0.931777    0.549937
C      1.294678   -0.175885   -0.317295
C     -0.676871    1.243493    0.348742
C      0.381427   -1.333703   -0.154217
C     -1.602840    0.164415    0.017435
C     -1.019125   -1.104708   -0.527205
O     -0.756752    2.267190   -0.627256
O      0.723860   -2.419926    0.257182
O     -2.529509    0.610229   -0.938535
O     -1.798446   -2.210297   -0.163292
H      3.324085    0.317830    0.083147
H      3.056457   -1.474317   -0.201626
H      2.523875   -0.657122    1.350150
H      1.391440    1.820032    0.363533
H      0.966957    0.633567    1.613612
H      1.379990    0.148551   -1.373531
H     -1.038218    1.755580    1.291509
H     -2.215249   -0.129719    0.911981
H     -1.050841   -1.097418   -1.658314
H     -0.599461    3.156741   -0.225365
H     -3.447584    0.391869   -0.723937
H     -1.716245   -2.281429    0.834429
