50

C     -7.256448    0.396942   -1.287838
C      2.370364   -3.929194   -2.913363
C     -6.536361    0.716113    0.030425
C      5.559489    2.825021   -0.505720
C      4.504963    3.444591    0.158098
C      5.781636    1.494054   -0.244310
C      3.699763    2.777600    1.045903
C      4.972026    0.832088    0.645612
C      0.511390   -2.592255   -1.360542
C     -0.406193   -1.911683   -0.569639
C     -2.190997   -0.144934    1.472935
C      2.238410   -1.567475   -0.105618
C      0.234613    0.327335    2.129479
C     -0.716117   -0.306997    1.345598
C      1.857067   -2.416027   -1.123242
C      3.923781    1.440638    1.307757
C     -0.008021   -1.066779    0.443174
C     -2.749439    0.815853    0.483175
C      1.353570   -0.871256    0.704221
C     -4.231392    0.878365    0.718717
N     -2.402516    0.485025   -0.855123
N      1.488338   -0.020322    1.732938
O     -4.624407    1.162126    1.866957
O      3.767031   -0.617583    2.972903
O      2.632967    1.399376    3.644791
O      2.831913   -3.074694   -1.887307
O     -5.153636    0.639551   -0.263458
S      2.958041    0.549226    2.425821
H     -6.698276   -0.484376   -1.708279
H     -7.037992    1.260047   -1.954912
H     -8.315466    0.191035   -1.138921
H      3.250362   -4.335594   -3.444080
H      1.814339   -4.805331   -2.517094
H      1.678744   -3.390214   -3.594134
H     -6.846074    1.673263    0.446546
H     -6.847027   -0.069777    0.768540
H      6.173313    3.378156   -1.197530
H      4.339554    4.482869   -0.052382
H      6.597651    0.948241   -0.735733
H      2.872723    3.252712    1.570010
H      5.205690   -0.227733    0.813050
H      0.225952   -3.260321   -2.161211
H     -1.460394   -2.085400   -0.782964
H     -2.665963   -1.130221    1.322692
H     -2.419282    0.238461    2.505547
H      3.279622   -1.419949    0.098571
H      0.027450    1.002138    2.940607
H     -2.353964    1.860376    0.671203
H     -3.093009   -0.072763   -1.378844
H     -2.137788    1.329676   -1.404385
