46

C     -4.489149    2.075700   -0.845712
C      7.690657    0.634791   -0.856081
C     -0.648762   -0.642229   -0.895092
C     -1.980081   -0.852592   -1.199158
C     -3.905436    1.015305    1.297476
C     -1.286267    0.684968    0.945334
C      4.582081   -0.626867    0.836924
C      2.071952   -0.537536    1.100776
C     -4.761904   -2.781647   -1.118472
C     -4.826853    0.941928    0.070324
C      6.724592    0.306013    0.231840
C     -2.610604    0.512962    0.694211
C     -0.272967    0.137900    0.193975
C      3.257233   -0.288005    0.188457
C     -2.960934   -0.278997   -0.406637
C     -5.196685   -1.403553   -0.908104
C      1.837806    1.511734    0.144383
N      5.627657   -0.241744   -0.081416
N      1.090794    0.328000    0.469262
N     -4.387245   -0.352950   -0.485707
O     -3.546736   -3.026444   -0.531170
O      7.033991    0.596609    1.532505
O     -6.428731   -1.146040   -1.128372
O      1.348559    2.673998    0.087662
O      3.156902    1.104124   -0.082451
H     -4.669142    3.019676   -0.295412
H     -5.034794    2.067011   -1.790004
H     -3.380845    2.063097   -1.031933
H      8.723267    0.359538   -0.619446
H      7.658961    1.750066   -0.981077
H      7.365797    0.192393   -1.826407
H      0.113265   -1.091567   -1.514539
H     -2.233528   -1.448407   -2.074884
H     -3.717118    2.068138    1.573537
H     -4.249107    0.414244    2.131571
H     -0.998094    1.291563    1.792676
H      4.660834   -0.186910    1.836387
H      4.593356   -1.747608    0.963592
H      2.354200   -0.168232    2.123728
H      1.766010   -1.593405    1.130208
H     -5.533681   -3.529699   -0.814134
H     -4.644868   -2.911855   -2.233427
H     -5.871259    0.923342    0.360567
H      3.111109   -0.905254   -0.716053
H     -3.714679   -3.364572    0.400808
H      6.580450    0.213746    2.329487
