55

C      5.955893    3.000707   -1.038684
C     -5.806692    3.064686    0.216037
C      6.488362    1.892303   -0.444919
C      4.566880    3.058308   -1.160356
C     -4.447941    2.895750    0.178483
C     -6.596652    1.960444    0.342173
C      5.665274    0.870345    0.014837
C      3.764673    2.036634   -0.699308
C     -3.909385    1.622507    0.268772
C     -6.045054    0.706030    0.429990
C      2.451821    0.116343    1.407322
C      3.015055   -1.133852   -0.658672
C     -1.949749   -3.268095   -0.709678
C      1.071754    0.305563    0.883008
C      1.612187   -0.802423   -1.107337
C     -2.617266   -2.816729    0.560559
C     -1.669966   -0.587384    0.213339
C      4.286744    0.916402   -0.100586
C      3.495282   -0.220738    0.416354
C     -4.657007    0.474478    0.396901
C     -0.400860   -1.476045    0.124648
C     -0.610093   -2.585700   -0.849389
C     -4.135013   -0.846016    0.481464
N      0.687301   -0.642077   -0.072616
N     -2.842862   -1.363396    0.419990
O      0.364070   -3.577512   -0.655321
O     -5.047989   -1.775773    0.652363
H      6.548222    3.823446   -1.414423
H     -6.209677    4.061223    0.145094
H      7.563540    1.833104   -0.343655
H      4.155541    3.948299   -1.636413
H     -3.770873    3.746825    0.078988
H     -7.675896    2.077639    0.372890
H      6.174804    0.040294    0.466999
H      2.706957    2.150439   -0.823253
H     -2.851591    1.581148    0.238163
H     -6.664404   -0.179845    0.530435
H      2.376511   -0.753607    2.138029
H      2.763601    0.960311    2.070490
H      3.674074   -0.963195   -1.550308
H      3.136300   -2.203633   -0.401679
H     -1.833100   -4.384915   -0.720348
H     -2.616490   -2.940600   -1.537982
H      0.359448    0.245810    1.746728
H      0.901718    1.335657    0.453352
H      1.286516   -1.475322   -1.937755
H      1.706590    0.185648   -1.641358
H     -3.593054   -3.325195    0.708771
H     -1.959737   -3.017481    1.412799
H     -1.497444   -0.002082    1.132323
H     -1.633930   -0.026557   -0.734356
H      4.258497   -0.859370    0.999361
H     -0.321117   -1.930099    1.135314
H     -0.532621   -2.288981   -1.911644
H      0.858847   -3.463721    0.194120
