51

C      4.928165   -0.341618   -1.049673
C      5.098003    0.432445    1.250486
C     -1.938622   -1.065696   -1.343824
C     -3.654628   -1.288641    0.912040
C     -2.176275   -1.437084    1.048594
C     -0.941722    1.817359   -0.437595
C     -3.946249    2.180491   -0.485194
C      4.315891   -0.464439    0.324051
C     -4.067337    0.014573    0.354121
C     -3.241133    0.997701    0.057195
C      0.244486    1.274744   -1.156902
C      2.086003   -0.174992    1.493281
C      0.669242   -0.656324    1.419186
C     -5.383499    0.505519    0.017543
C      2.159870   -0.429992   -0.995133
C     -1.442386   -0.604592    0.011078
C     -1.766897    0.832632    0.282849
C      2.849757   -0.120773    0.294743
C      0.720654   -0.004624   -0.925114
C      0.045018   -0.771492    0.157264
O     -6.507032   -0.092658    0.130571
O      2.158067   -1.815378   -1.275871
O     -1.585797    1.031793    1.671332
O     -5.288758    1.793468   -0.479010
O      0.050049    0.275074   -2.113093
O      2.424757    1.049121    0.919269
O      0.577602   -1.930068    0.664199
H      4.586939    0.559989   -1.593496
H      4.729858   -1.284706   -1.586024
H      6.026593   -0.241090   -0.938787
H      5.241734    1.450594    0.835389
H      4.693205    0.459733    2.276026
H      6.123801   -0.014356    1.325988
H     -1.144327   -1.706429   -1.779819
H     -2.839996   -1.715565   -1.263000
H     -2.230838   -0.222727   -1.998570
H     -4.076854   -2.138475    0.304847
H     -4.099134   -1.448124    1.936619
H     -1.875057   -2.493831    0.881206
H     -1.840853   -1.165085    2.090000
H     -0.564194    2.626012    0.254696
H     -1.560359    2.376443   -1.189158
H     -3.575455    2.460657   -1.492907
H     -3.757814    3.068739    0.161015
H      4.448766   -1.504417    0.676280
H      0.923335    2.087279   -1.553372
H      2.592180   -0.369508    2.462929
H      0.121757   -0.682494    2.366857
H      2.610069    0.059757   -1.878542
H      1.490859   -1.971871   -1.994276
H     -2.411445    0.802928    2.165125
