51

C     -0.374371   -0.148862    3.145608
C      4.486394    3.187530   -1.087644
C     -2.741623    3.225433    1.000982
C      2.774803   -0.750921   -2.919367
C      1.550918    1.332600    1.433675
C      2.507214    1.971495    0.628167
C     -2.108929   -2.951876   -0.763666
C     -0.670642   -3.268045   -0.458245
C     -3.503100   -0.927671   -1.226747
C     -2.085432    0.549384    0.575604
C      1.427675   -2.107487   -0.006884
C      0.244570   -0.774207    1.970117
C     -2.456565   -1.502082   -0.520396
C      1.224439    0.026748    1.209071
C     -1.741892   -0.753223    0.390061
C      1.848124   -0.674482    0.170234
C     -3.853026    0.393082   -1.039666
C      3.115071    1.273251   -0.391054
C     -3.140385    1.145909   -0.129824
C     -0.672838   -1.494943    1.049091
C      2.781782   -0.053635   -0.617503
N      0.030850   -2.130771   -0.022274
O     -4.912772    0.924813   -1.773517
O      4.056817    1.862232   -1.202727
O     -3.482557    2.471650    0.065867
O      3.388999   -0.770657   -1.644603
H     -0.081020   -0.711105    4.078244
H     -0.311320    0.923138    3.280985
H     -1.485971   -0.372317    3.079851
H      3.758332    3.820267   -1.647728
H      4.566949    3.531105   -0.027564
H      5.475027    3.309480   -1.598577
H     -2.930430    2.766790    2.008130
H     -1.648913    3.239508    0.771387
H     -3.060424    4.278872    1.044952
H      1.671745   -0.648571   -2.776903
H      3.130332    0.143271   -3.441388
H      2.992436   -1.697312   -3.470443
H      1.078129    1.869808    2.224290
H      2.775535    2.989975    0.787583
H     -2.240522   -3.137507   -1.869938
H     -2.833390   -3.540332   -0.201053
H     -0.699933   -4.002238    0.401930
H     -0.179931   -3.839577   -1.276474
H     -4.073512   -1.525670   -1.953414
H     -1.550111    1.192343    1.281786
H      1.827358   -2.423302   -0.972950
H      1.840879   -2.697394    0.839422
H      0.900789   -1.627192    2.377094
H     -1.172744   -2.304449    1.660815
H     -5.442817    0.407141   -2.434396
