48

C      1.219209   -3.213201   -1.831343
C     -0.910974   -1.807364   -2.048565
C     -4.722767   -0.174685    0.877882
C      4.923543    0.235612    3.354141
C     -1.118714    2.040433   -1.798057
C     -2.269484    2.782182   -1.974134
C      2.341427   -1.285413   -0.739339
C     -2.283832    0.553591   -0.389107
C      3.061082   -0.136007    1.340729
C      0.665508    1.367689    1.301852
C      1.114923   -2.177017   -0.729618
C     -0.166993   -1.393759   -0.779705
C     -1.106548    0.910969   -1.001006
C      2.129594   -0.303225    0.354527
C      0.952174    0.427077    0.324268
C     -3.446035    2.416088   -1.356963
C      1.608911    1.536942    2.300648
C     -3.458434    1.294289   -0.557568
C      2.779585    0.811210    2.331626
C      0.076856    0.104164   -0.806943
O     -4.624205    3.154439   -1.522781
O      1.378766    2.469387    3.314418
O     -4.658826    0.960612    0.043317
O      3.740964    0.976736    3.341413
H      1.975765   -3.991495   -1.515806
H      0.258645   -3.721305   -1.971323
H      1.636258   -2.788674   -2.767357
H     -0.222603   -1.972061   -2.897704
H     -1.557549   -0.939651   -2.375527
H     -1.502932   -2.723173   -1.914770
H     -5.791011   -0.450299    1.107766
H     -4.246322    0.007393    1.852307
H     -4.217704   -1.036878    0.408901
H      5.643589    0.554500    4.113700
H      5.414666    0.352502    2.347213
H      4.722427   -0.853956    3.528981
H     -0.228667    2.377655   -2.307838
H     -2.300547    3.673817   -2.597355
H      3.241099   -1.915213   -0.552511
H      2.425643   -0.811147   -1.736177
H     -2.327900   -0.318325    0.245301
H      3.979553   -0.715629    1.351512
H     -0.263205    1.923467    1.251267
H      1.139759   -2.710357    0.264786
H     -0.795032   -1.633853    0.107254
H      0.724308    0.253897   -1.729801
H     -5.469449    2.861453   -1.059064
H      0.535482    3.026584    3.336075
