48

C     -0.576591   -0.213623   -3.349467
C      1.457214    1.199685   -2.632952
C      2.217959   -4.173885    0.344351
C     -5.281279    1.729044    0.706785
C      2.032891    0.493292    2.046483
C      2.561434   -0.237783    3.083486
C     -1.069778   -0.865665   -0.983284
C      1.859579   -1.438719    0.698601
C     -2.589503    0.821767    0.028630
C     -0.499368    2.433184    0.728651
C      0.024752   -0.672556   -2.015346
C      1.190816    0.112211   -1.580456
C      1.666106   -0.082195    0.824934
C     -1.324560    0.419953   -0.274475
C     -0.266683    1.242233    0.084000
C      2.749858   -1.611848    2.936653
C     -1.779182    2.852884    1.042044
C      2.392281   -2.182850    1.740072
C     -2.826959    2.034318    0.685612
C      1.108308    0.790999   -0.241720
O      3.280750   -2.371300    3.970995
O     -1.983365    4.077740    1.703226
O      2.579046   -3.551643    1.587267
O     -4.101500    2.435511    0.989864
H      0.158891   -0.391270   -4.160337
H     -1.440580   -0.894166   -3.585387
H     -0.862392    0.832856   -3.361940
H      2.355400    1.743663   -2.219979
H      0.659433    1.961109   -2.645476
H      1.746484    0.794305   -3.601183
H      2.363958   -5.267766    0.361393
H      1.143949   -3.964427    0.134945
H      2.821972   -3.678530   -0.448203
H     -5.466574    1.032549    1.559815
H     -5.266024    1.235999   -0.267055
H     -6.165710    2.426445    0.740204
H      1.880424    1.558807    2.142776
H      2.832798    0.241046    4.011192
H     -0.856882   -1.657164   -0.272148
H     -1.984352   -1.110165   -1.566862
H      1.591114   -1.918306   -0.221409
H     -3.430166    0.179563   -0.250078
H      0.323967    3.105525    1.020213
H      0.371622   -1.723204   -2.254047
H      2.109661   -0.516652   -1.611744
H      1.742160    1.697746   -0.285470
H      3.425956   -3.365686    3.905508
H     -2.877336    4.436967    1.960798
