53

C     -3.547122    0.703393    2.308880
C      0.197424    4.531494   -0.946597
C     -3.017358   -0.605308    1.821688
C      5.573988   -1.292364    0.325515
C      5.892373    0.039650    0.430250
C     -3.276470   -0.833929   -1.613968
C      4.278919   -1.692529    0.181989
C      4.902014    0.986788    0.391049
C      1.088130   -2.122240   -0.134328
C     -2.991595    0.145123   -0.465115
C     -2.036161   -1.549597   -2.075730
C      0.157953   -2.110698   -1.279610
C     -0.911339    0.262457    0.970582
C     -1.794431   -1.912529    0.210906
C      3.265395   -0.745982    0.140584
C      1.865304   -0.854656    0.004017
C     -0.056534    0.823838   -0.082996
C      3.589210    0.587855    0.245940
C      1.378150    0.399018    0.029166
C     -0.193405    2.313209   -0.081796
C     -2.149672   -0.455754    0.579448
N      2.437091    1.243542    0.175497
N     -1.213990   -2.042134   -1.040881
O     -0.869428    2.831730    0.834296
O      0.376565    3.126773   -1.020663
H     -3.311243    1.559919    1.656553
H     -4.670136    0.610792    2.350495
H     -3.232514    0.949492    3.342594
H     -0.474468    4.802919   -1.809095
H      1.139782    5.089473   -1.120568
H     -0.222595    4.851773    0.019683
H     -3.805906   -1.364578    1.635789
H     -2.335486   -1.012103    2.612690
H      6.343280   -2.056502    0.354371
H      6.953956    0.313411    0.544833
H     -3.657609   -0.247711   -2.480441
H     -4.089964   -1.519842   -1.326948
H      3.994470   -2.745712    0.096101
H      5.164615    2.026752    0.474133
H      1.799394   -2.995227   -0.305237
H      0.650569   -2.430050    0.852196
H     -2.594167    1.040764   -0.969483
H     -3.996125    0.436942   -0.092545
H     -2.406231   -2.437267   -2.670636
H     -1.445328   -0.955666   -2.800959
H      0.553234   -1.367646   -2.042209
H      0.283932   -3.071980   -1.894384
H     -1.235400    1.080820    1.687687
H     -0.308358   -0.406949    1.615264
H     -2.770179   -2.506123    0.156556
H     -1.321681   -2.325626    1.098498
H     -0.369201    0.597907   -1.126756
H      2.418347    2.304865    0.233694
