44

C      4.293861    2.310387    1.156742
C     -4.414120    0.175233   -1.004174
C     -3.370662    1.384017    0.740331
C      3.128139   -2.382500   -0.411860
C     -5.647626    0.480347   -0.438265
C     -4.613131    1.687316    1.304237
C      4.463271   -2.397712   -0.050449
C      3.015704   -0.082365    0.169796
C     -1.052746   -1.966329   -0.528224
C      0.075248    1.075627   -1.178975
C     -3.275771    0.631296   -0.408458
C      2.397058   -1.236676   -0.306889
C     -5.772146    1.232025    0.711424
C     -1.187467   -0.541708   -0.041813
C      0.228717   -0.034288   -0.169247
C      5.072447   -1.230752    0.427011
C      4.341160   -0.070064    0.535883
C     -1.952065    0.327883   -0.979482
C      0.975694   -1.213000   -0.689581
O     -7.019617    1.529485    1.266901
O      6.407112   -1.187997    0.803730
O      4.911897    1.075386    0.997095
O     -1.215825    1.527223   -0.955528
O      0.264290   -2.296225   -0.211975
H      3.656685    2.388298    2.058646
H      3.633324    2.525639    0.292097
H      5.086858    3.096148    1.136085
H     -4.329008   -0.417033   -1.908953
H     -2.466458    1.751607    1.221608
H      2.698324   -3.322090   -0.779686
H     -6.529551    0.108347   -0.928116
H     -4.644838    2.283813    2.210956
H      5.062987   -3.303994   -0.127586
H      2.465088    0.843147    0.265526
H     -1.786888   -2.621273   -0.014983
H     -1.172523   -2.007348   -1.631150
H      0.755987    1.912549   -1.036130
H      0.145108    0.635286   -2.182633
H     -1.555491   -0.526599    0.992096
H      0.546617    0.316968    0.824813
H     -1.992099   -0.068936   -1.998896
H      0.843280   -1.220364   -1.808717
H     -7.406598    0.875464    1.956855
H      6.935774   -2.046240    0.719937
