53

C     -3.300664    1.342943   -1.379736
C     -0.496813    4.853468    0.741100
C     -2.258436    1.508709   -0.356509
C      4.808377   -2.277395   -1.230739
C      5.416992   -1.032466   -1.347419
C     -3.401560   -1.678016    0.183551
C      3.562656   -2.297022   -0.649498
C      4.776230    0.095128   -0.894327
C      0.718905   -2.064315    0.732549
C     -2.898704   -0.515757    0.961393
C     -2.249485   -2.668101    0.080969
C      0.083752   -2.643868   -0.513371
C     -0.845779    0.631460    1.406007
C     -1.206549   -0.635345   -0.781214
C      2.902643   -1.171827   -0.187767
C      1.649089   -0.948704    0.428168
C      0.480150    1.177270    1.264390
C      3.519686    0.028509   -0.314374
C      1.548818    0.355908    0.649514
C      0.426618    2.573895    0.685803
C     -1.722302    0.217354    0.287510
N      2.703732    0.939976    0.189841
N     -1.205235   -2.040887   -0.626145
O      1.089346    2.973653   -0.285228
O     -0.417860    3.533771    1.250917
H     -4.197948    0.769749   -1.110215
H     -3.721325    2.393744   -1.544697
H     -2.859909    1.107583   -2.364762
H     -0.496335    5.550753    1.581561
H     -1.419899    4.903425    0.123977
H      0.346494    5.050086    0.018639
H     -1.408254    2.037806   -0.825432
H     -2.633145    2.192698    0.461889
H      5.312238   -3.163697   -1.586953
H      6.385950   -0.990666   -1.796321
H     -3.747018   -1.513027   -0.825697
H     -4.165359   -2.178532    0.817865
H      3.098222   -3.267280   -0.563282
H      5.262184    1.045476   -0.993385
H      1.295183   -2.952668    1.155056
H     -0.038656   -1.897386    1.466048
H     -2.523062   -0.938848    1.917994
H     -3.686044    0.211278    1.249433
H     -1.969661   -3.095302    1.054689
H     -2.643844   -3.518131   -0.536515
H     -0.003992   -3.734173   -0.507736
H      0.702637   -2.351105   -1.381198
H     -0.922268   -0.010242    2.339864
H     -1.445682    1.529914    1.853340
H     -1.814240   -0.455824   -1.720342
H     -0.164042   -0.362669   -1.133481
H      0.781034    1.427469    2.349656
H      2.993134    1.951230    0.204618
