57

C      7.599057    1.216084    0.534023
C     -0.558043    2.182625    1.061980
C      7.792573   -0.257369    0.448225
C      6.938220   -0.889696   -0.566630
C      5.469788   -0.839892   -0.437178
C      4.788937    0.467959   -0.404377
C      3.292552    0.267876   -0.284339
C      2.667699   -0.493837   -1.396853
C      1.178169   -0.620083   -1.193403
C      0.557261   -0.113451   -0.160018
C     -2.763758    1.113217    0.737574
C     -7.128610   -0.524506   -0.365600
C     -5.137477   -1.512892   -1.590304
C     -5.655072   -0.264545    1.563098
C     -1.431780    1.052937    0.635461
C     -5.701622   -0.747594   -0.683479
C     -7.117813   -0.412898    1.144455
C     -4.966544    0.103785    0.267314
C     -3.491992   -0.101273    0.266764
C     -3.687622   -1.548902   -1.692558
C     -0.909721   -0.221115    0.068308
C     -2.925089   -0.444397   -1.085842
O     -7.852277    0.721001    1.488948
O     -3.104023   -2.493767   -2.280708
O     -1.580015   -0.672954   -1.032570
H      7.132616    1.670621   -0.362171
H      8.608854    1.757238    0.583534
H      7.105816    1.561915    1.468384
H     -1.086309    3.151776    0.991503
H     -0.066266    2.005017    2.022355
H      0.263297    2.245273    0.289198
H      8.865789   -0.416016    0.115378
H      7.768521   -0.756419    1.446824
H      7.218277   -1.990250   -0.593671
H      7.284712   -0.522385   -1.574288
H      5.067200   -1.379005   -1.358274
H      5.092159   -1.462695    0.415569
H      5.044618    1.089100    0.495300
H      5.002047    1.098902   -1.294311
H      2.801276    1.279396   -0.167553
H      3.116074   -0.228220    0.705960
H      2.812113    0.055331   -2.347056
H      3.109978   -1.523961   -1.426024
H      0.579062   -1.152439   -1.928379
H      1.121416    0.419653    0.587833
H     -3.261322    1.987896    1.135490
H     -7.798097   -1.290511   -0.749494
H     -7.449369    0.447078   -0.833828
H     -5.721569   -2.134393   -2.283084
H     -5.267572   -1.236828    1.964490
H     -5.602708    0.537362    2.313305
H     -7.590545   -1.281852    1.635099
H     -5.167729    1.194233    0.102236
H     -3.246290   -0.934015    0.956810
H     -1.036334   -0.994246    0.881937
H     -3.073754    0.467854   -1.736238
H     -7.898759    1.368278    0.735925
