46

C     -4.159689   -1.744147   -1.439500
C     -2.522841    3.876678    0.714947
C     -3.277577   -2.126792   -0.307567
C      4.857100    0.332061   -0.115184
C      4.852594    1.660759   -0.454388
C      3.695844   -0.375469    0.099485
C      3.635293    2.290568   -0.581792
C      0.962601   -0.368190    1.756787
C      0.879860   -1.869972    1.948408
C     -0.132314   -1.402104   -1.531976
C     -1.207270   -2.082500    1.002220
C     -2.043349   -1.668773   -0.141934
C     -1.450737   -0.719754   -1.110129
C      2.487093    0.247514   -0.024201
C      2.463338    1.594784   -0.371871
C      0.747426   -1.555077   -0.321640
C     -1.039123    0.583519   -0.506077
C      0.264582    0.824038   -0.294129
C     -1.965113    1.642208   -0.150662
C      1.128734   -0.234949    0.245799
N      1.096330    1.955768   -0.530473
N      0.166819   -2.333794    0.741071
O     -3.193492    1.423171   -0.342839
O     -1.631014    2.853127    0.371666
H     -4.050507   -0.723902   -1.792228
H     -5.211253   -1.880001   -1.071532
H     -4.069745   -2.472976   -2.289305
H     -3.565789    3.603836    0.429304
H     -2.458219    4.154065    1.798908
H     -2.194556    4.794590    0.158460
H     -3.625350   -2.829596    0.464797
H      5.810650   -0.184290   -0.011199
H      5.799884    2.185827   -0.614517
H      3.727711   -1.420806    0.365466
H      3.657196    3.343982   -0.851451
H      1.818235    0.061674    2.274124
H      0.042468    0.124514    2.120641
H      1.894275   -2.290535    1.958895
H      0.341176   -2.126686    2.863047
H     -0.329244   -2.368866   -2.016013
H      0.386676   -0.719284   -2.227259
H     -1.348135   -1.313065    1.798673
H     -1.641160   -3.019361    1.488926
H     -2.039818   -0.578998   -2.029309
H      1.696859   -2.038030   -0.698181
H      0.743553    2.895236   -0.776263
