43

C     -2.785039   -3.452492    2.132325
C     -4.564215    4.816080   -2.175174
C     -1.542119   -3.008796    1.394021
C     -3.271075    4.073154   -2.395321
C      6.487228   -2.164470    0.247250
C      5.519695   -2.240465   -0.724306
C      6.241983   -1.444341    1.395387
C      4.295195   -1.579276   -0.525673
C      5.024643   -0.792230    1.583144
C      2.791974   -0.186010    0.814985
C      1.789678   -0.185675   -0.045887
C     -2.803888    0.177513   -0.366119
C      4.056930   -0.866177    0.615242
C     -1.710355    1.225098   -0.383422
C      0.559441    0.531665    0.254448
C     -2.457837   -0.836732    0.663754
C     -1.979125    2.282284   -1.389638
O      0.439234    1.159774    1.341839
O     -2.724111   -0.570571    1.867339
O     -1.121904    2.444368   -2.295077
O     -1.868351   -2.041628    0.389560
O     -3.098701    3.074674   -1.376157
O     -0.502697    0.558598   -0.608962
H     -2.713863   -3.224933    3.208108
H     -3.716315   -2.982678    1.706123
H     -2.843389   -4.563378    2.014172
H     -4.353084    5.841171   -1.873496
H     -5.163201    4.742366   -3.114218
H     -5.119372    4.315132   -1.328868
H     -0.825649   -2.597439    2.145158
H     -1.022986   -3.832760    0.880385
H     -3.243960    3.591478   -3.395784
H     -2.429105    4.793626   -2.380634
H      7.432264   -2.653458    0.134278
H      5.659219   -2.787260   -1.635696
H      7.006084   -1.396229    2.140602
H      3.564585   -1.666216   -1.315041
H      4.835740   -0.222332    2.496806
H      2.611032    0.388588    1.746821
H      1.858192   -0.708370   -0.976294
H     -3.789639    0.614237   -0.138597
H     -2.871001   -0.345538   -1.334027
H     -1.652137    1.719649    0.606646
