24

C     -0.914868    0.617731    1.475040
C     -2.199392   -0.534121   -0.364898
C      1.141035    1.301517   -0.328549
C      2.138764    0.354425    0.250723
C      0.252038   -0.779830   -1.434575
C     -0.050738    0.623119   -0.920204
C      0.141780   -1.209739    0.041476
C      1.447966   -0.890689    0.634009
C     -0.857347   -0.081995    0.175924
O      1.955255   -1.634284    1.425596
H     -1.085456    1.713199    1.339600
H     -0.067054    0.399942    2.156820
H     -1.835627    0.258158    2.023042
H     -2.317129   -1.627504   -0.172840
H     -3.041207   -0.044443    0.198496
H     -2.349096   -0.264912   -1.418381
H      1.590254    2.029385   -1.037214
H      0.774021    1.941500    0.528758
H      2.926191    0.165539   -0.518572
H      2.606363    0.766188    1.174399
H      1.261814   -0.915023   -1.852371
H     -0.592283   -1.194844   -1.979124
H     -0.680045    1.223925   -1.585591
H     -0.245239   -2.217245    0.188437
