40

C     -3.038427    1.755232   -0.954382
C     -1.626522    1.610512    1.044905
C     -3.749084    0.368782    0.906974
C     -2.063933   -2.216034    1.292931
C      5.233501   -0.562178    1.052416
C      5.055577   -0.610075   -0.310572
C      4.215873   -0.159687    1.866773
C      3.841362   -0.249803   -0.865199
C      2.993637    0.201405    1.287872
C      1.498643    0.553896   -0.615178
C      2.791263    0.162401   -0.063947
C      0.495735   -0.526701   -0.797180
C      0.095396   -1.250026    0.407885
C     -1.819291   -0.349997   -0.514508
C     -2.524519    0.830191    0.128961
N     -0.721695    0.089064   -1.307700
N     -1.342336   -1.308586    0.429713
O      0.846427   -1.745240    1.287635
H     -2.305067    2.555822   -1.199143
H     -3.233328    1.205150   -1.910265
H     -3.994990    2.225395   -0.667929
H     -1.066610    2.364339    0.479754
H     -2.202560    2.145063    1.822081
H     -0.927806    0.886980    1.539709
H     -4.381300    1.285767    1.061890
H     -3.499247   -0.066653    1.880872
H     -4.334649   -0.366025    0.305713
H     -3.125796   -2.292515    1.067129
H     -1.943571   -1.833531    2.339903
H     -1.641897   -3.249033    1.255152
H      6.220363   -0.860764    1.430112
H      5.869365   -0.930461   -0.943630
H      4.344865   -0.118247    2.940505
H      3.661796   -0.273370   -1.925538
H      2.221831    0.515548    1.981137
H      1.065197    1.355626    0.008046
H      1.696473    0.978227   -1.643743
H      0.793838   -1.278988   -1.559077
H     -2.561337   -0.829637   -1.203867
H     -0.837179   -0.011847   -2.323547
