51

C     -5.749729   -0.215195    0.282493
C     -2.940229   -0.129228    1.909788
C      3.246239   -1.939570   -0.482648
C      3.571632   -0.678706    1.559219
C      1.012256    0.299970   -1.944691
C     -5.030633    0.613702   -0.417930
C     -0.685299   -1.490070    1.050536
C      0.677950   -1.814311    0.414505
C     -2.887204    1.419068   -1.129855
C      1.356148    1.883708   -0.122881
C     -2.833534   -0.423392    0.417203
C     -3.549843    0.553727   -0.395555
C     -1.418798   -0.666222    0.015372
C     -1.445704    1.419697   -1.159028
C      2.849243    1.895777   -0.334919
C      1.401905   -0.479398    0.412358
C     -0.709713    0.628018   -0.179723
C      3.404831    0.534035   -0.516497
C      2.860622   -0.664604    0.218938
C      0.761909    0.515748   -0.495051
O     -0.905048    2.126568   -2.057175
O      3.100886    2.687601   -1.449596
O      4.335060    0.393111   -1.291486
H     -5.269094   -0.959613    0.890295
H     -6.820021   -0.159722    0.256718
H     -2.886918   -1.092674    2.456791
H     -3.845324    0.466454    2.157585
H     -2.008221    0.421990    2.196755
H      3.710901   -1.686448   -1.480604
H      2.435354   -2.635399   -0.657433
H      4.053151   -2.504344    0.051212
H      4.654148   -0.545031    1.357943
H      3.167098    0.078015    2.252513
H      3.477317   -1.707987    2.002038
H      0.079937   -0.051371   -2.433424
H      1.795243   -0.426375   -2.186401
H      1.283825    1.250304   -2.448561
H     -5.520427    1.350073   -1.019257
H     -0.563472   -0.980650    2.006058
H     -1.165218   -2.492571    1.189990
H      1.210200   -2.494315    1.075292
H      0.450219   -2.186677   -0.587957
H     -3.455446    2.167245   -1.741988
H      0.829238    2.712086   -0.610050
H      1.185424    1.983465    0.968031
H     -3.374723   -1.407992    0.285141
H     -1.354731   -1.260614   -0.942264
H      3.376154    2.358247    0.525003
H      1.243369   -0.075843    1.459686
H     -0.764070    1.189614    0.796403
H      3.653139    2.220100   -2.122890
