26

C      2.118296    1.612385   -0.817135
C     -2.393517    0.573503    0.157926
C     -0.374272    0.318025    1.667557
C      1.847969   -0.735102   -0.358218
C      0.736918   -1.619778    0.124170
C     -0.604972   -0.433965   -1.652949
C      1.309210    0.600995   -0.675756
C     -0.610782   -1.182402   -0.337130
C     -0.139908    0.784648   -0.831247
C     -0.938298    0.177431    0.299336
H      3.198347    1.564883   -0.719553
H      1.717086    2.591392   -1.050326
H     -2.504373    1.495458   -0.458713
H     -2.995293   -0.207855   -0.342072
H     -2.860152    0.808350    1.144297
H     -0.873215    1.158125    2.203910
H      0.714656    0.442100    1.614499
H     -0.661216   -0.602353    2.255528
H      2.313856   -1.191654   -1.272156
H      2.670739   -0.643610    0.397028
H      0.953461   -2.659899   -0.182675
H      0.813975   -1.629714    1.250806
H      0.121299   -0.775162   -2.391726
H     -1.628260   -0.249747   -1.993380
H     -1.428106   -1.915050   -0.230373
H     -0.503450    1.718994   -1.245718
