41

C     -0.541156    3.194641   -0.945721
C      3.959121   -1.783068    2.166909
C     -3.911130   -1.784028   -1.080015
C      2.938768   -2.600047    1.731013
C      3.929957   -0.461546    1.831400
C     -3.082362   -2.251003   -0.080431
C     -3.829369   -0.450975   -1.397899
C      1.897852   -2.072805    0.959431
C      2.898501    0.035919    1.072882
C     -2.202302   -1.401230    0.574562
C     -2.951549    0.379303   -0.739277
C      1.861453   -0.741697    0.617083
C     -2.113192   -0.057945    0.261127
C      0.770057   -0.212920   -0.182434
C      0.148449    1.034134    0.266922
C     -1.193593    0.871302    0.938176
C      1.329870    0.091767   -1.561549
C      0.358146    1.083629   -2.072605
N     -0.038144    1.833222   -0.920629
O     -1.773545    2.086829    1.295257
O      2.560319    0.685114   -1.425848
O     -0.007377    1.204701   -3.258941
H     -0.562665    3.642831    0.072738
H      0.128705    3.887983   -1.525217
H     -1.527555    3.265707   -1.440978
H      4.780412   -2.160571    2.766404
H     -4.609836   -2.460498   -1.599542
H      2.991251   -3.642090    2.013877
H      4.713280    0.188287    2.160602
H     -3.158088   -3.308242    0.160470
H     -4.468423   -0.069980   -2.174977
H      1.138023   -2.785757    0.659960
H      2.919014    1.075565    0.838199
H     -1.577004   -1.816798    1.347843
H     -2.941462    1.403012   -1.034934
H      0.026630   -1.023774   -0.350843
H      0.837273    1.611448    0.920634
H     -0.930707    0.415901    1.952450
H      1.352325   -0.827495   -2.186262
H     -2.632052    2.229537    0.835291
H      2.512108    1.691638   -1.465127
