18

C     -1.839827   -0.656218    0.490139
C     -1.194026    1.139051    0.171400
C     -0.495803   -0.061677    0.714776
C      0.651327   -0.607056   -0.053721
C      1.869266    0.130302    0.330971
N      0.517240   -0.643577   -1.449832
O      2.159723    0.269567    1.535293
O      2.678488    0.660722   -0.645508
O     -2.391163    0.618737    0.709992
H     -2.138429   -1.412018    1.255710
H     -2.060996   -0.947027   -0.563698
H     -0.902629    2.124560    0.610450
H     -1.305234    1.227278   -0.908772
H     -0.269142    0.048190    1.773487
H      0.807977   -1.667333    0.306268
H     -0.362056   -0.310422   -1.861897
H      1.003846   -1.394209   -1.950809
H      3.271437    1.481128   -0.464249
