56

C      6.597287    1.234696   -0.091324
C      5.238327    0.637284   -0.425174
C      4.986534   -0.476198    0.537871
C      3.664860   -1.103254    0.256848
C      2.489460   -0.156082    0.370980
C     -3.737700    2.686568   -0.644231
C     -3.745971    1.645549   -1.707329
C     -3.270381    2.196440    0.695323
C      1.251643   -1.009970    0.045413
C     -1.352471    1.080508    1.856893
C     -0.027619    0.417476    1.533699
C     -3.073836   -1.937969    0.005329
C     -2.576803    0.726832   -1.705854
C     -3.423897   -0.519247    0.296453
C     -1.062713   -3.161401   -0.504753
C     -1.994721    1.431923    0.538161
C      0.043176   -0.118225    0.141573
C     -1.550915   -1.935012    0.221346
C     -2.235804    0.220246   -0.311398
N     -1.153665   -0.705770   -0.353661
O     -1.520502   -3.209132   -1.818418
H      7.295345    0.895869   -0.864142
H      6.939636    0.948591    0.902858
H      6.569082    2.343046   -0.129111
H      4.453105    1.424920   -0.354638
H      5.197721    0.252776   -1.457633
H      5.758968   -1.262272    0.384044
H      5.039841   -0.144739    1.595864
H      3.648238   -1.527071   -0.779253
H      3.519299   -1.940415    0.953638
H      2.552928    0.708807   -0.290920
H      2.432454    0.125749    1.449494
H     -4.770491    3.072452   -0.517855
H     -3.088234    3.533076   -0.940303
H     -3.739704    2.186880   -2.699241
H     -4.701926    1.048988   -1.740168
H     -3.037248    3.104754    1.312080
H     -4.059747    1.649802    1.224667
H      1.437801   -1.424660   -0.942926
H      1.187646   -1.741695    0.867874
H     -1.934576    0.402018    2.476871
H     -1.218464    2.021421    2.421644
H      0.739065    1.243409    1.619443
H      0.258810   -0.332849    2.289146
H     -3.529545   -2.660055    0.719904
H     -3.288747   -2.192517   -1.055878
H     -1.682846    1.296136   -2.046706
H     -2.796261   -0.114933   -2.394796
H     -4.376210   -0.252865   -0.204030
H     -3.469279   -0.396794    1.397615
H      0.009028   -3.303761   -0.514700
H     -1.542115   -4.041166    0.015853
H     -1.275146    2.089719   -0.003889
H      0.266175    0.764978   -0.529602
H     -1.411013   -1.990160    1.305760
H     -0.927879   -3.732697   -2.408710
