68

C     -5.952988   -0.362330   -2.193989
C     -6.334957    0.096839    0.159835
C     -1.709241   -1.514508    1.831512
C     -3.769021    1.189706    1.398387
C      8.819052   -2.380285   -1.066421
C      7.548188    2.482937    1.302910
C      4.825449   -1.486027   -0.378357
C      6.159945   -1.749121   -0.591524
C     -4.388176    2.626901   -1.226802
C     -5.432847    1.827317   -1.358900
C     -2.539053   -1.972866   -0.415447
C     -3.953615   -1.470107   -0.187246
C      5.426334    0.605114    0.563493
C      2.069895   -0.906992    0.075285
C     -0.918299    1.059756    1.200766
C      4.439685   -0.312983    0.198503
C      0.502888    0.647040    0.912068
C      7.130923   -0.841698   -0.230549
C      3.047135   -0.017151    0.430330
C      0.738627   -0.571812    0.321489
C      6.739979    0.346842    0.353949
C     -3.115279    2.151398   -0.703087
C      1.532225    1.495826    1.244324
C     -5.387728    0.407329   -0.989320
C     -1.614845   -1.111382    0.377870
C     -3.138369    0.871437    0.056363
C     -3.999724   -0.072853   -0.756878
C     -1.750000    0.352961    0.146217
O     -2.053490    2.792760   -0.885567
O      1.310511    2.626715    1.792429
O     -3.373557   -0.154836   -2.025121
O     -1.121842    0.631073   -1.090908
O      8.447844   -1.160263   -0.468579
O      7.759111    1.225811    0.698297
O      2.753889    1.123566    0.987845
O     -0.281165   -1.463773   -0.031914
H     -5.422204   -0.115508   -3.121213
H     -6.993096    0.059564   -2.322113
H     -6.083727   -1.422674   -1.986051
H     -7.371909   -0.075112   -0.256117
H     -6.453084    0.960421    0.848704
H     -6.073637   -0.839239    0.674239
H     -1.993708   -2.590172    1.860879
H     -2.414088   -0.932059    2.418537
H     -0.707315   -1.422146    2.339458
H     -4.342538    0.360632    1.820970
H     -2.968617    1.463807    2.116664
H     -4.407538    2.119242    1.323115
H      8.345693   -2.524046   -2.050232
H      9.925438   -2.388508   -1.125281
H      8.514406   -3.205320   -0.360059
H      6.601174    2.919309    0.938588
H      8.346374    3.212526    0.998049
H      7.563394    2.391192    2.419092
H      4.122539   -2.234225   -0.682478
H      6.455116   -2.690052   -1.053121
H     -4.430624    3.684098   -1.504977
H     -6.355638    2.236444   -1.754583
H     -2.269949   -2.040062   -1.477288
H     -2.446293   -3.014344   -0.008439
H     -4.628986   -2.120153   -0.739477
H     -4.110758   -1.483246    0.910278
H      5.109170    1.532541    1.020503
H      2.234867   -1.857012   -0.383780
H     -1.019931    2.143233    1.173653
H     -1.115124    0.628176    2.226480
H     -3.682545   -0.972673   -2.489921
H     -0.344348    1.203023   -1.002521
