76

C     -1.291493   -3.425464    3.930720
C     -4.454733    2.013709   -1.991840
C      5.973412    3.165045    3.100097
C      0.482433    2.298262   -1.650051
C     -0.027952    3.412208    0.363829
C      3.803049   -0.837591    3.693217
C      1.759264    1.953114   -1.112850
C      1.261659    3.047816    0.864832
C      4.564181    0.350667    3.730331
C      0.468879   -4.651830    1.527262
C     -3.104790    2.151955   -5.020700
C      0.557724   -4.681616    2.987360
C     -4.056991    2.933124   -4.179516
C     -1.814005    3.220411   -1.400718
C      2.181472   -2.432179    3.015150
C      2.757304   -0.319224    1.616806
C     -2.572497   -0.268590   -4.897185
C     -0.405528   -3.430461   -0.349110
C     -0.377708   -0.976566    1.075539
C     -0.407657    3.016289   -0.907855
C      2.921289   -1.186286    2.688646
C      0.045543   -3.337530    0.978467
C     -2.584636    0.941003   -4.273027
C      2.129009    2.326566    0.143039
C      0.060309   -2.115594    1.682294
C      0.652148   -2.302948    3.033614
C     -2.261463    2.554781   -2.614915
C     -2.131223   -1.377419   -4.214624
C      4.370714    1.198848    2.661735
C      3.453870    0.832073    1.621920
C     -0.834749   -2.264328   -0.930992
C     -0.824776   -1.056907   -0.238131
C     -2.163323    1.163399   -2.927279
C     -1.717528   -1.205487   -2.910474
C     -1.728310    0.052152   -2.256625
N      0.096433   -3.522749    3.659923
N     -3.684124    2.935128   -2.800518
O     -2.112888   -2.614227   -4.845639
O      5.024124    2.314151    2.596682
O      3.416131    1.907416    0.646830
O     -1.277499   -2.324962   -2.247889
O     -1.288343    0.001376   -0.998145
H     -1.564788   -3.778098    4.953189
H     -1.904780   -3.975832    3.186858
H     -1.674256   -2.362985    3.860298
H     -4.027798    0.999102   -1.993758
H     -5.501014    1.920187   -2.397107
H     -4.485533    2.318737   -0.916810
H      6.161925    3.059452    4.193573
H      5.696971    4.236331    2.927137
H      6.949849    3.018273    2.537408
H      0.464070    1.901483   -2.713788
H     -0.528824    4.037695    1.160112
H      3.997189   -1.488430    4.574883
H      2.356570    1.371734   -1.866222
H      1.381935    3.501311    1.900309
H      5.225350    0.548005    4.544377
H      1.484141   -4.874927    1.079008
H     -0.245622   -5.434502    1.130474
H     -2.261395    2.784966   -5.327323
H     -3.563238    1.794081   -5.972398
H     -0.076069   -5.544969    3.378048
H      1.585157   -4.924627    3.375694
H     -4.092578    4.003663   -4.525032
H     -5.081078    2.501272   -4.317421
H     -2.065855    4.319149   -1.604701
H     -2.598427    3.012360   -0.570393
H      2.421458   -3.346936    2.527457
H      2.375115   -2.653308    4.121953
H      2.170214   -0.637600    0.679485
H     -2.903027   -0.387667   -5.944031
H     -0.411091   -4.374729   -0.879103
H     -0.405133    0.073629    1.539288
H      0.452154   -1.553004    3.804279
H     -1.758155    3.135231   -3.477147
H     -2.430164   -2.656582   -5.818806
