53

C     -1.118599   -1.322841    2.545939
C      6.514704   -0.489422    1.264086
C      4.344021    3.282987   -0.683090
C     -2.244609    2.720683    0.750196
C      2.422724   -1.235787    0.498694
C      3.754293   -0.969242    0.730536
C     -2.197852   -2.907333   -0.010808
C     -0.875705   -2.810380    0.664823
C     -6.054444    1.277267   -1.974454
C     -2.755327   -1.582330   -0.388000
C      1.653305   -0.416991   -0.345564
C      4.403393    0.102340    0.156023
C     -2.087751   -0.395107   -0.228138
C      2.307604    0.644260   -0.910821
C     -4.043633   -1.545333   -0.941405
C     -0.735750   -0.414775    0.350815
C      0.260314   -0.429670   -0.783082
C      3.664190    0.914225   -0.673479
C     -2.671571    0.789351   -0.601766
C     -4.639899   -0.365724   -1.319828
C     -3.959423    0.819536   -1.154266
C      1.323952    1.338767   -1.731871
Br    -4.969795   -3.185617   -1.163890
N     -0.640763   -1.526860    1.227676
O      1.609225    2.382170   -2.402085
O      5.753821    0.344524    0.411656
O      4.289977    2.005394   -1.269746
O     -2.047023    2.021099   -0.464947
O     -5.890970   -0.125199   -1.878767
O     -4.796549    1.825389   -1.617153
O      0.125667    0.673767   -1.629481
H     -0.755419   -0.341281    2.908429
H     -0.669418   -2.097727    3.216653
H     -2.231466   -1.323782    2.642342
H      6.302614   -1.553095    0.949559
H      6.169421   -0.419965    2.310860
H      7.582811   -0.329319    1.124769
H      4.508958    4.031366   -1.510099
H      5.233836    3.397679   -0.005997
H      3.411609    3.557066   -0.159703
H     -2.336658    1.964002    1.577043
H     -3.196838    3.294243    0.736743
H     -1.405952    3.426022    0.960956
H      1.898358   -2.065562    0.936824
H      4.312554   -1.626558    1.389321
H     -2.921020   -3.417340    0.688674
H     -2.186366   -3.575879   -0.917549
H     -0.026683   -3.139379   -0.004423
H     -0.828772   -3.549277    1.519097
H     -6.850966    1.649572   -1.297527
H     -6.314192    1.534404   -3.011213
H     -0.518132    0.500226    0.951682
H      0.124194   -1.334565   -1.434245
