57

C     -3.981849    3.528787   -0.891422
C      4.781920    2.529528    0.509721
C     -1.681024    2.771601    2.026968
C      3.591666   -0.731163    2.022274
C      2.587699   -1.375705   -2.643444
C      0.431852   -0.963736   -3.693654
C     -3.292150    3.551518    0.399835
C      4.600558    1.332417    1.335929
C     -1.378677   -4.075229    0.692651
C     -2.937486   -3.116852    2.212484
C     -0.481204   -3.929014   -0.325106
C     -3.560940   -1.972203    2.664670
C     -2.333866    2.690976    0.706111
C      3.661296    0.432847    1.105879
C     -2.030355   -2.968770    1.183700
C     -0.221683   -2.664257   -0.869397
C     -3.247773   -0.764536    2.073008
C     -0.864735   -1.548403   -0.389763
C     -1.767082   -1.721897    0.638939
C     -0.593914   -0.205027   -0.962249
C      0.859958   -0.153486   -1.363172
C     -1.952024    1.691456   -0.267230
C      2.757585    0.619025   -0.009745
C      1.084140   -1.272585   -2.357665
O     -3.848560    0.270471    2.522662
O     -2.487002    1.594894   -1.400785
O      2.804016    1.597804   -0.792734
O     -2.377513   -0.669670    1.095691
O     -0.942984    0.746446   -0.009533
O      1.741488   -0.315734   -0.291387
O      0.678616   -2.527291   -1.888393
H     -4.753585    4.324026   -0.914242
H     -3.320309    3.741726   -1.756468
H     -4.569262    2.574578   -1.035510
H      3.857698    3.154008    0.581848
H      5.022372    2.260161   -0.554625
H      5.653324    3.120243    0.859451
H     -2.384272    3.171360    2.800554
H     -0.811013    3.448937    2.033657
H     -1.396347    1.753273    2.408903
H      3.680011   -0.304581    3.062518
H      2.661269   -1.314828    1.892308
H      4.482256   -1.384923    1.909348
H      3.163784   -1.496090   -1.713536
H      2.715972   -2.307021   -3.233915
H      2.939574   -0.544407   -3.275932
H      0.195135    0.097937   -3.823807
H      1.094733   -1.252950   -4.544023
H     -0.483988   -1.601478   -3.800748
H     -3.597231    4.322661    1.131257
H      5.295943    1.199388    2.186234
H     -1.571081   -5.073313    1.108535
H     -3.163288   -4.080348    2.658059
H      0.027119   -4.800256   -0.706460
H     -4.283426   -2.048132    3.475452
H     -1.182166   -0.130395   -1.902589
H      1.126814    0.788210   -1.881111
