40

C      2.286406    2.275025   -1.952227
C     -4.148993    0.148603   -1.701109
C     -4.481679    0.545302    0.636315
C     -3.210339   -0.916003   -1.129912
C     -2.989515    0.883329    0.536375
C      0.500418   -2.276959    0.845621
C      0.002987    0.272295   -0.088010
C      2.611256    2.132416   -0.463680
C      1.541413   -1.361880    0.635829
C     -0.788121   -1.878625    0.575267
C      1.310707   -0.092545    0.172706
C     -1.061608   -0.612363    0.108802
C      3.844375   -0.826251    0.687312
C      2.841426   -1.734288    0.898470
C      3.595160    0.482848    0.208525
C      5.219933   -1.223091    0.966265
F     -1.840014   -2.718430    0.757833
N     -5.104741    0.472180   -0.668278
N     -2.383476   -0.231200   -0.158889
N      2.347185    0.799346   -0.029413
O      3.029894   -2.901533    1.321891
O      5.945813   -1.750392    0.088464
O      5.714224   -1.003686    2.233495
S      4.359749    2.014001   -0.242633
H      2.799305    3.201418   -2.284254
H      2.713074    1.438473   -2.508577
H      1.198119    2.396288   -2.097662
H     -4.633611   -0.282244   -2.598487
H     -3.546163    1.044812   -1.903175
H     -4.995235    1.247902    1.308291
H     -4.555715   -0.483368    1.086111
H     -2.585055   -1.361350   -1.943168
H     -3.783768   -1.740496   -0.674242
H     -2.624139    0.997381    1.565852
H     -2.862596    1.835694   -0.015162
H      0.705858   -3.280798    1.214244
H     -0.218483    1.256640   -0.451525
H      2.091074    2.927193    0.135891
H     -5.554157    1.380871   -0.940757
H      6.709029   -1.076512    2.399042
