43

C     -5.065178    1.448022   -1.277719
C      6.701902    1.239357   -0.539300
C      7.032857   -0.097286   -0.458662
C      5.368562    1.575849   -0.436251
C      6.074370   -1.067754   -0.281826
C      3.015098    0.634255   -0.123927
C     -1.624023   -1.639554    1.459949
C     -1.927115    0.421294   -1.600357
C     -5.913572   -0.288610    0.349567
C     -0.109335    1.199930   -0.070674
C     -4.868595    0.354792   -0.285254
C      4.419200    0.591684   -0.259149
C     -1.599725    1.347630   -0.411043
C      4.729806   -0.738260   -0.177080
C      2.517430   -0.626999    0.031079
C     -3.020525   -1.940896    1.769616
C     -1.318545   -0.705321    0.571057
C     -3.671329   -0.172174    0.144967
C     -4.015682   -1.148353    1.055270
C      1.148718   -1.057194    0.243797
C     -2.280862    0.095095   -0.188747
N     -5.356325   -1.197121    1.157685
N      3.613122   -1.449303   -0.006948
N      0.002324   -0.215047    0.216265
O     -3.315769   -2.834271    2.605227
O      0.970696   -2.322096    0.479934
H     -6.073359    1.901205   -1.165792
H     -4.328513    2.245715   -1.165548
H     -5.061846    0.991784   -2.302249
H      7.463350    2.007291   -0.679537
H      8.077454   -0.399568   -0.536108
H      5.021594    2.602872   -0.489079
H      6.329895   -2.119175   -0.217924
H      2.475513    1.573030   -0.132066
H     -0.869504   -2.205069    1.979109
H     -2.652283    0.870902   -2.287630
H     -1.113119   -0.132666   -2.096144
H     -6.975723   -0.067131    0.192792
H      0.469762    1.474458   -0.988990
H      0.158639    1.851063    0.762636
H     -2.069544    2.328758   -0.359601
H     -5.911458   -1.842515    1.772726
H      3.551633   -2.488620    0.086836
