46

C     -6.264022    1.460162    0.991481
C     -2.635663   -0.903925   -1.565470
C      4.000208    0.786008    1.482344
C     -3.714866   -0.841290   -2.434814
C      5.359128    0.787745    1.222479
C     -3.897484    0.228834    0.114126
C      3.603679   -0.583822   -0.388007
C     -0.069897    1.272700    1.589970
C      0.272278   -1.643083    0.058593
C      7.012695   -0.692745   -1.662063
C     -2.709420   -0.377220   -0.295483
C      3.094377    0.105566    0.690112
C     -0.504825    0.563870    0.327496
C      0.732029   -0.228234   -0.039585
C     -4.867323   -0.234860   -1.990305
C      5.858887    0.092548    0.137951
C     -4.995077    0.307052   -0.733142
C      4.967619   -0.585174   -0.653231
C     -1.550774   -0.445924    0.635972
C      1.682874    0.158635    1.038209
O     -5.987253   -0.142464   -2.822795
O     -6.174795    0.912342   -0.317501
O     -0.979496   -1.683129    0.637597
O      1.295070    1.460445    1.353351
O      7.154016   -0.088365   -0.369162
O      5.693396   -1.201203   -1.668874
H     -7.255577    1.901412    1.173030
H     -5.500643    2.272753    1.107657
H     -5.998269    0.669166    1.726827
H     -1.742913   -1.376196   -1.917115
H      3.670375    1.348468    2.345502
H     -3.701423   -1.240273   -3.437074
H      6.076929    1.317165    1.836388
H     -4.015352    0.660981    1.101349
H      2.903089   -1.112673   -1.004375
H     -0.142808    0.571755    2.446663
H     -0.593122    2.222147    1.752032
H      0.942534   -2.247968    0.727670
H      0.286904   -2.167377   -0.936616
H      7.736883   -1.515427   -1.794312
H      7.188321    0.060515   -2.447918
H     -0.789177    1.280095   -0.468453
H      1.033254    0.084018   -1.052740
H     -1.939234   -0.241701    1.677111
H      1.472632   -0.465980    1.930160
H     -6.007762   -0.505349   -3.765689
