46

C      5.367087    2.392773    1.020900
C      3.084302   -1.984474    0.219410
C     -3.643583   -0.901785   -0.324674
C      4.448618   -2.259337    0.208592
C     -5.035791   -0.869026   -0.341181
C      3.534433    0.348712    0.626525
C     -3.571488    1.314952    0.504285
C      0.120225    0.970955   -1.277733
C     -0.372851   -2.091370    0.391470
C     -7.115215    2.050199    0.317997
C      2.627485   -0.696722    0.425611
C     -2.910273    0.181566    0.094821
C      0.540193   -0.425420   -0.935936
C     -0.831186   -1.028695   -0.576375
C      5.325361   -1.217144    0.408154
C     -5.701855    0.261494    0.067090
C      4.881292    0.075978    0.615619
C     -4.959658    1.356977    0.491348
C      1.181611   -0.458404    0.427495
C     -1.456387    0.153000    0.112321
O      6.694585   -1.451228    0.404374
O      5.811834    1.086421    0.811220
O      0.552817   -1.432169    1.169834
O     -0.862695    1.286673   -0.381218
O     -7.030457    0.647395    0.183724
O     -5.832717    2.360488    0.847958
H      4.642425    2.625741    0.187128
H      6.157512    3.152062    0.943978
H      4.787414    2.510125    1.968910
H      2.418482   -2.838436    0.057745
H     -3.165771   -1.809031   -0.652346
H      4.808624   -3.263726    0.047845
H     -5.612170   -1.713627   -0.668362
H      3.115161    1.329380    0.781700
H     -3.062796    2.204515    0.846857
H      0.966706    1.699013   -1.105006
H     -0.263165    1.070956   -2.296914
H     -1.206948   -2.454950    1.034674
H      0.063107   -2.916339   -0.212768
H     -7.159293    2.500573   -0.700365
H     -7.936379    2.373999    0.967409
H      1.056062   -0.978537   -1.711980
H     -1.349175   -1.394344   -1.454643
H      0.955101    0.526812    0.932643
H     -1.140992    0.076751    1.195253
H      7.080408   -2.372744    0.258345
