51

C      1.115444    1.646447   -2.349969
C     -0.134354   -0.320147    1.611289
C     -3.410229    0.942784    1.556676
C     -2.320658   -2.119196   -0.347944
C     -0.100419    2.395252   -0.400160
C      3.108244   -0.111538   -0.880532
C      1.934183   -0.336106    0.056647
C     -1.498198    1.940306   -0.156880
C      5.083799   -1.606027   -0.161823
C     -0.874271   -1.845520   -0.112512
C     -3.226171   -1.357684    0.580062
C      6.233786   -1.396726    0.561450
C      5.183322    0.492221    0.487436
C      0.574761    1.349418   -1.186690
C      4.397752   -0.395034   -0.216552
C      0.646600   -0.036955   -0.684491
C     -1.699169    0.435337   -0.228257
C     -4.084725    0.491956   -0.686070
C     -0.563886   -0.393833    0.193182
C     -3.054011    0.103273    0.352845
O     -4.982645    1.318681   -0.493306
O     -4.033663   -0.111268   -1.948023
O      6.233914   -0.137491    0.916670
H      1.627571    0.913737   -2.975231
H      1.053985    2.674400   -2.716741
H      0.281209    0.671070    1.878525
H     -0.921631   -0.544358    2.350921
H      0.669153   -1.053876    1.828306
H     -4.253377    0.409669    2.075616
H     -3.837547    1.934025    1.278236
H     -2.618747    1.119907    2.271704
H     -2.597550   -1.856957   -1.388225
H     -2.574990   -3.203068   -0.239877
H     -0.145146    3.374376   -0.950163
H      0.421438    2.640292    0.546328
H      3.115863    0.988686   -1.100118
H      2.957724   -0.731594   -1.772135
H      2.057657    0.220437    0.983936
H      1.939186   -1.434755    0.322033
H     -2.149729    2.457060   -0.923582
H     -1.892942    2.334345    0.818064
H      4.748744   -2.510713   -0.610510
H     -0.556444   -2.524224    0.728381
H     -0.321898   -2.206140   -1.016459
H     -4.276218   -1.671171    0.316051
H     -3.111368   -1.665954    1.638568
H      7.008466   -2.101560    0.810127
H      4.967304    1.537546    0.657478
H      0.586725   -0.718701   -1.570308
H     -1.806908    0.226925   -1.340592
H     -4.899934   -0.227556   -2.464117
