51

C      0.489815   -2.991201    0.600391
C     -0.298757    1.352809   -1.288612
C     -2.637952    2.162868    0.577070
C     -2.868542    0.123439   -1.987626
C      0.333638   -0.889660    1.888552
C      3.035614   -0.923924   -0.386969
C      1.811436   -0.045034   -0.534107
C     -0.617126    0.271223    1.680981
C      5.011695    0.451478   -1.313838
C     -1.573351   -0.623075   -1.896460
C     -3.601821    0.232099   -0.698417
C      6.005115    1.248993   -0.749302
C      4.761314    0.488907    0.860469
C      0.458365   -1.666655    0.623206
C      4.219397   -0.033342   -0.294715
C      0.547549   -0.871877   -0.636154
C     -1.458922   -0.051130    0.453906
C     -3.488850    0.208082    1.696014
C     -0.682570   -0.009628   -0.806804
C     -2.766410    0.691201    0.459660
O     -3.867416    0.998615    2.597890
O     -3.767473   -1.138141    1.890547
O      5.797519    1.227708    0.545140
H      0.428891   -3.595772    1.476786
H      0.581886   -3.491092   -0.353002
H      0.243510    1.194666   -2.269151
H     -1.169275    1.981446   -1.566084
H      0.340353    1.924742   -0.622017
H     -1.559472    2.410368    0.760843
H     -3.174693    2.550174    1.466583
H     -3.050049    2.728846   -0.283962
H     -3.526260   -0.473640   -2.688026
H     -2.780043    1.118165   -2.471449
H      1.319668   -0.554277    2.266183
H     -0.071434   -1.608660    2.646825
H      2.956087   -1.525804    0.559757
H      3.153162   -1.629505   -1.228668
H      1.799747    0.619859    0.353876
H      1.988147    0.598190   -1.407115
H     -0.129635    1.243520    1.628468
H     -1.281710    0.290327    2.569384
H      4.881351    0.245826   -2.369317
H     -1.076927   -0.581819   -2.884316
H     -1.809621   -1.661710   -1.582289
H     -4.501630    0.852855   -0.859286
H     -3.984582   -0.789878   -0.439294
H      6.793923    1.783073   -1.264607
H      4.385288    0.312767    1.868381
H      0.612734   -1.554631   -1.506262
H     -1.756756   -1.135605    0.598949
H     -4.454930   -1.466187    2.570916
