42

C      4.973379   -2.205875   -1.005857
C      3.898804   -1.450117   -0.924835
C     -6.214191   -0.159620    1.442578
C     -6.394674   -0.297118    0.083719
C     -4.974977    0.227121    1.924660
C      1.010051    0.491520   -0.405759
C      0.437204    1.578882   -1.315701
C      3.001573   -1.545484    0.256670
C      2.382132    0.843568    0.074769
C     -5.330788   -0.043626   -0.749124
C     -3.917380    0.476994    1.063085
C     -0.929764    1.158369   -1.754329
C      4.260171    0.175917    1.530275
C     -3.033680    0.582996   -1.287905
C      2.912469   -0.223546    0.965704
C     -4.085527    0.342837   -0.299029
O      4.666149   -0.802104    2.428948
O     -1.820440    0.967588   -0.718578
H      5.654253   -2.178337   -1.833706
H      5.218729   -2.915421   -0.200942
H      3.671247   -0.763278   -1.715448
H     -7.051475   -0.357528    2.123314
H     -7.361831   -0.599074   -0.294458
H     -4.856396    0.328559    2.993693
H      0.291733    0.327752    0.402844
H      1.083215   -0.452264   -1.017815
H      0.490911    2.564353   -0.857518
H      1.088287    1.592986   -2.214478
H      3.424811   -2.283255    0.998016
H      2.024227   -1.924977   -0.037495
H      3.091682    1.034643   -0.752679
H      2.310345    1.819225    0.628099
H     -5.498929   -0.159997   -1.828909
H     -2.933567    0.784451    1.452595
H     -0.808472    0.158794   -2.266369
H     -1.378957    1.857923   -2.467715
H      4.157379    1.158041    2.023502
H      4.970561    0.265868    0.677065
H     -2.850625   -0.282353   -1.965247
H     -3.381907    1.440585   -1.935494
H      2.247363   -0.384694    1.859557
H      5.556903   -1.150306    2.138669
