34

C      0.964981   -1.100893    0.740514
C      2.119108   -0.430468    1.463770
C     -3.532873   -1.957385   -0.118704
C     -0.926391    1.663309    0.223661
C      0.515697   -0.293510   -0.452896
C      3.338178   -0.293272    0.576846
C     -2.860080    0.649412    0.335338
C      1.619681    0.617764   -0.884676
C      2.904421   -0.222479   -0.850720
C     -4.168868    0.234353    0.470227
C     -1.888599   -0.238567   -0.026335
N     -5.188999    1.133733    0.842776
N     -4.465062   -1.049787    0.240485
N     -2.265010   -1.527091   -0.243205
N     -2.232797    1.842569    0.488103
N     -0.699757    0.396507   -0.092432
O      3.920592    0.945073    0.898519
O      1.419319    1.163343   -2.148965
O      3.857962    0.254267   -1.717561
H      0.150291   -1.202734    1.491521
H      1.232218   -2.117667    0.410493
H      1.758590    0.552486    1.840535
H      2.341456   -1.096956    2.347294
H     -3.760625   -2.998252   -0.307047
H     -0.143748    2.425507    0.255394
H      0.265139   -0.964793   -1.312227
H      4.074423   -1.127314    0.752477
H      1.742965    1.471805   -0.163209
H      2.622327   -1.265723   -1.167914
H     -5.169932    2.131544    0.543578
H     -5.983433    0.807120    1.428712
H      3.245191    1.556541    1.308147
H      1.234759    0.395655   -2.765433
H      3.958877   -0.354097   -2.516016
