47

C     -4.335477    1.169156    0.293729
C     -2.087077    4.366783   -0.686606
C      4.720874   -2.119939    0.253162
C      5.372005   -0.910741    0.186574
C      3.352481   -2.165424    0.237507
C      4.612999    0.231979    0.106500
C      0.657901   -1.293155   -1.291386
C     -0.145940   -2.506784   -0.992634
C     -0.450190   -0.517018    1.927154
C     -2.000803   -1.864396    0.428897
C     -3.657081   -0.122347    0.409650
C     -1.305197    0.434092    1.050328
C     -2.217315   -0.385599    0.212172
C      2.545988   -1.018962    0.155126
C      3.212475    0.168234    0.092902
C      0.256419   -1.513257    1.044741
C     -0.282687    1.203885    0.303307
C      0.950650    0.680819    0.155708
C     -0.542743    2.492991   -0.260278
C      1.114289   -0.796559    0.058591
N      2.248137    1.218815    0.087199
N     -0.667383   -2.326625    0.321753
O     -4.354375   -1.079411    0.699603
O      0.337198    3.160029   -0.892713
O     -1.780707    3.093662   -0.147180
H     -4.032361    1.803302    1.160176
H     -4.118543    1.737141   -0.621081
H     -5.428053    1.029852    0.363819
H     -2.875483    4.808051   -0.040399
H     -2.481997    4.257506   -1.703787
H     -1.217773    5.055228   -0.626248
H      5.301552   -3.021770    0.317235
H      6.462401   -0.855530    0.196772
H      2.794833   -3.106318    0.288640
H      5.113656    1.197405    0.053146
H      0.099325   -0.515530   -1.854714
H      1.558674   -1.625160   -1.857857
H     -0.919367   -2.627995   -1.771951
H      0.479057   -3.438166   -1.020540
H      0.324058    0.141163    2.378986
H     -1.067859   -0.968966    2.706869
H     -2.347631   -2.070244    1.472051
H     -2.671276   -2.462743   -0.233096
H     -1.830380    1.063272    1.805051
H     -2.020014   -0.096967   -0.863515
H      0.849690   -2.167947    1.707326
H      2.473050    2.264189    0.037018
