69

C      4.610143    4.789769   -1.266893
C     -4.785471    2.198482    1.566501
C     -6.473104    2.387513   -1.441237
C      2.719479    2.635955    1.329158
C      3.288958   -1.841322   -1.866129
C      4.561213    3.574966   -0.720922
C     -5.251548    0.837371    1.127145
C     -6.484812    0.965368   -0.990591
C      1.293392   -3.521733    3.247848
C      1.304041   -2.472300    2.323909
C      1.184372   -4.832660    2.843571
C     -0.900673   -0.597229    0.716075
C     -0.816321   -1.367483   -1.470496
C     -2.207629   -0.145712    0.473180
C     -2.073580   -0.943029   -1.730574
C      4.104617    2.398444   -1.462926
C      1.091637   -4.131047    0.597378
C      2.674602    0.606608   -1.763109
C      2.378575    0.241362    1.017693
C      3.145481    1.458757    0.462978
C      3.135921   -0.631779   -1.023670
C     -0.174056   -1.221621   -0.260277
C     -2.828239   -0.300933   -0.736235
C      1.201818   -2.803926    1.001242
C      1.080556   -5.166907    1.502751
C      1.216194   -1.684028   -0.028174
C     -4.190874    0.107911   -1.049742
N     -5.222995    0.604955   -0.274865
N      2.942482    1.737084   -0.898645
N      2.230758   -0.766800    0.099091
O      0.973162   -6.482838    1.132782
O     -4.514957   -0.017503   -2.319786
H      4.295954    4.881494   -2.295288
H      4.949221    5.657372   -0.712290
H     -3.849533    2.508298    1.060717
H     -4.549804    2.131909    2.651685
H     -5.588292    2.940536    1.461690
H     -7.289507    2.988617   -0.992416
H     -6.602671    2.476131   -2.557456
H     -5.528385    2.925825   -1.191882
H      3.448104    2.830732    2.114383
H      1.752546    2.394583    1.847979
H      2.534250    3.550083    0.723855
H      3.435556   -2.714547   -1.229015
H      2.542480   -1.958154   -2.676588
H      4.272434   -1.722031   -2.416063
H      4.881580    3.480578    0.313297
H     -4.802190    0.029525    1.696307
H     -6.368944    0.814289    1.424222
H     -7.328409    0.809399   -0.295070
H     -6.622260    0.299105   -1.861172
H      1.375171   -3.258404    4.303793
H      1.383358   -1.473251    2.677221
H      1.177314   -5.645093    3.577951
H     -0.547505   -0.423886    1.720069
H     -0.222967   -1.873822   -2.258277
H     -2.730554    0.360205    1.264607
H     -2.532855   -1.079558   -2.688191
H      3.941031    2.678473   -2.529153
H      4.968856    1.672697   -1.495906
H      1.011257   -4.352903   -0.479181
H      3.224442    0.663548   -2.722712
H      1.606703    0.609928   -1.988469
H      1.475971    0.605843    1.504939
H      3.101988   -0.123681    1.819040
H      4.254090    1.342984    0.635882
H      4.128984   -0.381033   -0.587757
H      1.476121   -2.262234   -0.980578
H      0.113322   -6.999252    1.022796
