67

C      2.078998    3.080202   -0.871280
C      3.411730    2.398242    0.941198
C     -2.267223    1.485376   -0.114846
C      2.722890    4.313581   -0.910870
C      4.056474    3.619825    0.909397
C     -2.601176    2.780948    0.234599
C     -3.224116    0.720786    1.882714
C      0.735579   -3.580757    2.443061
C      0.701917   -1.269763    2.961373
C     -2.934697   -1.510662   -2.010357
C      0.143007   -2.477776   -3.837517
C      2.417855    2.117809    0.051634
C     -2.573108    0.414648    0.707581
C      3.727623    4.593905   -0.009747
C      0.503926   -2.572232    3.351113
C     -1.514517   -1.777766   -2.320282
C     -3.259315    3.056681    1.430088
C     -1.181129   -2.233810   -3.560865
C     -3.566836    2.019510    2.248198
C      1.163951   -3.243686    1.156909
C      1.105943   -2.263706   -2.877747
C     -3.274307   -1.569072   -0.552990
C      1.126453   -0.911652    1.690967
C      1.354991   -1.929988    0.791091
C      0.794843   -1.800874   -1.610249
C      1.811266   -1.582597   -0.576990
C      2.493401   -0.261653   -0.591417
C     -2.218373   -0.983287    0.342445
C      1.678322    0.822587    0.026285
C     -0.559542   -1.566928   -1.372092
O      4.377931    5.832409   -0.045573
O      0.071919   -2.894216    4.651450
O     -3.577762    4.362960    1.747546
O     -2.163605   -2.450068   -4.534416
O     -4.222352    2.267727    3.444867
O      1.388572   -4.262850    0.269079
O      2.428431   -2.514006   -3.173709
O     -4.458342   -0.858401   -0.355708
O      3.651198   -0.395492    0.212667
O      1.313868    0.429050    1.340691
O     -0.921399   -1.112556   -0.140016
H      1.292127    2.889745   -1.594136
H      3.675706    1.641914    1.663945
H     -1.756215    1.279643   -1.045160
H      2.425039    5.034875   -1.649188
H      4.852289    3.860576    1.612086
H     -2.368403    3.615668   -0.395704
H     -3.474595   -0.104296    2.544844
H      0.575617   -4.597168    2.764353
H      0.512532   -0.499043    3.694170
H     -3.233152   -0.518376   -2.460422
H     -3.534736   -2.267257   -2.562937
H      0.435606   -2.837453   -4.805419
H     -3.501754   -2.631811   -0.303765
H      2.648047   -2.329269   -0.854809
H      2.883311    0.006306   -1.597763
H     -2.260663   -1.566420    1.302841
H      0.763741    0.954391   -0.585943
H      5.198261    5.888300   -0.635369
H      0.840995   -3.040980    5.324236
H     -4.045090    4.689861    2.567516
H     -1.925901   -2.784985   -5.447790
H     -4.506855    3.161430    3.789012
H      1.698482   -4.127762   -0.681022
H      2.763321   -2.850610   -4.058772
H     -4.385098    0.086682   -0.635473
H      3.684102   -1.246409    0.682384
