62

C      6.219565   -2.347703   -0.814556
C      7.114825   -1.244110   -0.434855
C      4.940077   -1.854693   -0.430380
C     -1.281385    4.815134   -1.462261
C     -1.851538    5.979546   -1.016908
C      0.777405   -0.315511    1.192900
C     -4.686768   -2.717508    1.829163
C      2.294920   -0.343693    1.527753
C     -4.361796   -1.358392    1.262800
C     -2.364999   -0.641617    0.240387
C     -1.456901   -0.694316   -0.977301
C      5.279843    0.182888    0.425787
C     -2.774240    3.585607   -0.095567
C      2.140235   -1.751628   -0.658505
C      7.603191    0.966858    0.462016
C     -3.055270   -2.990331    0.187994
C      6.629505   -0.116334    0.123301
C      4.362309   -0.918643    0.050989
C     -1.740802    3.544443   -1.005492
C     -4.354415   -3.653295    0.699160
C      2.022805   -0.293064   -0.843200
C     -3.376084    4.728405    0.370087
C     -2.887916    5.937240   -0.115813
C      0.790277    0.304142   -0.159796
C     -0.592186    1.473024   -1.801378
C      2.904189   -0.739975    0.228506
Cl    -4.674291    4.678669    1.525070
F     -3.472681    7.089558    0.342245
N      8.361467    1.809707    0.716043
N     -1.126595    2.428556   -1.421491
N     -3.462667   -1.625480    0.135443
N     -0.407041    0.270637   -0.919219
O     -4.146868   -4.958247    1.091072
O     -0.030566    1.275065   -3.084811
H      6.474708   -3.213603   -1.224812
H      8.163856   -1.450053   -0.653905
H      4.242446   -2.814949   -0.755830
H     -0.478610    4.844172   -2.158593
H     -1.513206    6.925198   -1.372711
H      0.265185    0.305858    1.959620
H      0.321836   -1.317572    1.254936
H     -4.041517   -2.967931    2.711213
H     -5.773167   -2.813540    2.118744
H      2.501704   -0.998961    2.380241
H      2.544209    0.723717    1.731516
H     -5.333012   -0.964313    0.822988
H     -3.918172   -0.733748    2.045993
H     -1.889325   -0.798913    1.214736
H     -2.881589    0.363440    0.194460
H     -1.039505   -1.745337   -1.063455
H     -2.074580   -0.542284   -1.854450
H      4.923050    1.035457    0.839139
H     -3.178861    2.650083    0.277800
H      1.467400   -2.355746   -0.064645
H      2.613076   -2.256925   -1.492704
H     -2.272842   -3.215839    0.946025
H     -2.855673   -3.446290   -0.789427
H     -5.142362   -3.619878   -0.076580
H      2.339544    0.167558   -1.759472
H      1.086548    1.399354    0.032715
H     -3.253390   -5.144956    1.474926
H     -0.633353    1.481062   -3.907652
