67

C     -3.534412    1.986269    3.308405
C     -4.022023    1.827738    0.998906
C      3.836324    0.718026   -1.954678
C     -4.160286    3.199356    3.327163
C     -4.646792    3.036690    1.013622
C      4.457432    1.541298   -2.871228
C      4.129688    2.372359   -0.316820
C     -3.021037   -1.887289   -2.604661
C     -4.462857   -1.641883   -0.784733
C      3.715449   -2.112043    0.400898
C      0.605844   -3.907141    1.456985
C     -3.458926    1.280717    2.128392
C      3.654538    1.118876   -0.636093
C     -4.723545    3.745529    2.195349
C     -4.293075   -1.976150   -2.107429
C      2.296084   -2.464585    0.695461
C      4.921245    2.795720   -2.509216
C      1.935318   -3.678707    1.224769
C      4.747391    3.210215   -1.197361
C     -1.944028   -1.474167   -1.797909
C     -0.381927   -2.990463    1.189582
C      3.965826   -0.734114    0.932163
C     -3.422833   -1.235758    0.021101
C     -2.120479   -1.143773   -0.480009
C     -0.018057   -1.773686    0.658891
C     -0.999038   -0.716778    0.389040
C     -1.387472    0.073658    1.591706
C      3.000500    0.287604    0.392077
C     -2.772665   -0.061231    2.083433
C      1.344237   -1.507964    0.408568
O     -5.367171    4.966198    2.158115
O     -5.365479   -2.387358   -2.909046
O      5.536845    3.595533   -3.444046
O      2.937519   -4.605903    1.494654
O      5.225336    4.474958   -0.869801
O     -0.720811   -1.426499   -2.429395
O     -1.707727   -3.246343    1.431555
O      5.271232   -0.310342    0.646669
O     -1.086489    1.427736    1.446671
O     -3.597089   -0.899187    1.345352
O      1.803407   -0.324346   -0.116628
H     -3.092312    1.568622    4.219805
H     -3.950075    1.254636    0.083822
H      3.465238   -0.266648   -2.214132
H     -4.231451    3.770382    4.241544
H     -5.067449    3.408896    0.092927
H      4.598062    1.229134   -3.894505
H      3.993165    2.699103    0.715556
H     -2.852078   -2.141357   -3.637384
H     -5.454246   -1.696926   -0.347055
H      4.429659   -2.798593    0.891096
H      3.850683   -2.102969   -0.706912
H      0.352990   -4.885976    1.879900
H      3.918417   -0.801946    2.058868
H     -0.449150    0.033334   -0.283289
H     -0.705462   -0.268564    2.429298
H      2.734621    0.951598    1.245428
H     -2.830482   -0.432188    3.150103
H     -5.484717    5.567714    2.948632
H     -5.537052   -3.402879   -2.910098
H      5.866007    4.506901   -3.153046
H      2.625659   -5.492473    1.886299
H      5.085767    4.758498    0.102925
H      0.153923   -1.163286   -2.096245
H     -2.044805   -4.120745    1.820961
H      5.804075   -1.099928    0.369929
H     -1.348986    1.772891    0.555328
