85

C      4.211137   -0.085793    0.821983
C      3.673055    2.348829    0.563845
C     -3.092337   -1.680084    0.886847
C     -1.082105   -2.978035    1.209279
C      1.061568   -0.859158   -1.780607
C     -1.901936    0.924845   -0.850413
C      1.959751   -0.505629   -0.639742
C      1.273079   -0.279863    0.663410
C     -0.162763    0.087861    0.593610
C      3.142969    0.930709    0.441973
C     -1.578130   -1.641911    0.719254
C     -0.824654   -0.118476   -0.731329
N     -4.128878    2.418191   -0.156243
O     -3.059498    3.117199   -2.459917
O     -5.145998    1.751231   -2.528490
O      0.018809    0.042763   -1.815509
O     -2.850805    0.652934   -1.814031
O      2.667596    0.679120   -0.853314
O      2.027428    0.754817    1.241848
O     -0.984174   -0.633852    1.452481
O     -1.321007   -1.412640   -0.617712
S     -3.861880    2.010029   -1.824603
C     -3.863557   -1.808894    0.601980
C     -1.629632   -2.694660    0.229618
C      1.361397    3.640697   -0.016030
C      2.879902    2.185618    1.204523
C     -1.441066    1.495387   -1.130892
C      1.149096   -0.913376   -0.554463
C     -2.273505    0.692192   -0.173090
C     -1.487012    0.513560    1.086786
C     -0.008826    0.641277    0.932289
C     -2.421593   -1.419297    0.448670
C      1.519157    2.229599    0.528492
C      0.523229    0.472470   -0.442589
N      4.089914   -2.548431   -0.950546
O      1.690783   -3.506318   -1.347892
O      2.924001   -2.649548   -3.324498
O     -0.351804    0.724019   -1.469112
O      1.939434   -0.951537   -1.688061
O     -2.316524   -0.616174   -0.669207
O     -1.910201   -0.726530    1.529024
O      0.489219    1.859261    1.360647
O      1.569620    1.373934   -0.543374
S      2.632846   -2.464981   -1.869909
Mg     0.000000    0.000000    0.000000
H      4.608556   -0.558558   -0.099056
H      3.814004   -0.854620    1.516752
H      5.033876    0.465183    1.315390
H      3.407885    2.871980   -0.386838
H      3.160706    2.911504    1.369012
H      4.771887    2.315438    0.703741
H     -3.598617   -0.866999    0.346672
H     -3.395374   -1.785914    1.943085
H     -3.416332   -2.628214    0.386201
H     -1.483483   -3.093003    2.248187
H     -1.521962   -3.801902    0.625923
H      0.012002   -3.056786    1.261950
H      1.642885   -0.707634   -2.724425
H      0.723990   -1.897733   -1.671694
H     -1.390752    1.869226   -1.168395
H     -2.342686    1.164739    0.148230
H      2.739578   -1.305252   -0.559691
H      1.481687   -1.170988    1.306535
H     -0.268135    1.158096    0.904463
H     -4.020941    3.448347    0.011337
H     -4.530184   -0.953588    0.832521
H     -3.988528   -2.663658    1.293535
H     -4.201921   -2.184102   -0.397028
H     -2.096132   -3.567079    0.711563
H     -1.530800   -2.870956   -0.867724
H     -0.603986   -2.489656    0.594008
H      0.337711    3.969524    0.295380
H      1.349017    3.652951   -1.124645
H      2.148682    4.324273    0.331874
H      2.924588    1.435583    2.011154
H      3.190956    3.192371    1.559645
H      3.660433    1.883262    0.462105
H     -2.040975    1.658507   -2.040917
H     -1.197746    2.471202   -0.689376
H      0.397889   -1.710634   -0.492535
H      1.827772   -1.005219    0.325535
H     -3.278010    1.098297    0.006007
H     -1.807515    1.282147    1.835238
H      0.447263   -0.127255    1.608820
H      3.926606   -2.924240    0.002476
