30

C     -0.034948   -2.978358    0.476348
C      1.760706    1.505906    0.306810
C      2.501092   -0.527840   -1.457183
C     -1.161853   -0.775494    0.613811
C     -1.338647    1.507229   -0.400248
C     -0.682191   -1.834203   -0.309336
C      0.857901    0.540961   -0.054134
C      3.401393    0.448951   -1.086617
C      3.039974    1.454372   -0.216395
C      1.227612   -0.452497   -0.918917
C     -2.685500    1.719605    0.177322
C     -0.512576    0.558074    0.478995
Cl     5.023318    0.377167   -1.756618
F      3.968643    2.403222    0.121740
O     -2.811219    2.497530    1.179354
O     -3.834557    1.126130   -0.298625
O     -0.531041    1.161286    1.759840
O      0.275313   -1.400489   -1.248569
H      0.599961   -2.591030    1.296238
H      0.586829   -3.567672   -0.226422
H     -0.828084   -3.666309    0.849763
H      1.531684    2.319080    0.986981
H      2.783065   -1.324438   -2.144024
H     -1.056937   -1.141997    1.675513
H     -2.264767   -0.627493    0.471457
H     -1.362174    1.155859   -1.437201
H     -0.841908    2.503402   -0.408332
H     -1.523381   -2.309772   -0.870129
H     -4.664274    1.033762    0.293725
H     -1.423437    0.885059    2.144853
