35

C      2.627216   -1.408127   -1.044512
C     -3.575104   -0.173416    1.030315
C      3.991203   -1.136181   -1.120766
C     -4.392787    0.784961    0.463387
C      2.200114    0.653360    0.071621
C     -1.473217   -1.403927    1.301873
C      1.741767   -0.535302   -0.461072
C     -2.260571   -0.349111    0.629073
C      4.443140    0.046301   -0.590213
C     -3.904719    1.601491   -0.533521
C      3.549553    0.934949    0.002558
C     -0.005420   -1.323457    1.000897
C     -2.593651    1.413176   -0.921121
C      0.293769   -0.856964   -0.396941
C     -1.768200    0.458553   -0.361170
O      5.789918    0.379152   -0.632776
O     -4.697710    2.581229   -1.131701
O      4.056144    2.112456    0.521982
O      0.506817   -2.636262    1.103295
O     -2.076405    2.225032   -1.926198
O     -0.451621    0.287237   -0.767502
H      2.292470   -2.343753   -1.467894
H     -3.999041   -0.793618    1.810618
H      4.682996   -1.813656   -1.574325
H     -5.418883    0.922130    0.776570
H      1.527924    1.373074    0.543604
H     -1.638772   -1.369239    2.398072
H     -1.865219   -2.390629    0.942111
H      0.545329   -0.671792    1.709555
H      0.093939   -1.648992   -1.134457
H      6.458972   -0.233266   -1.049673
H     -5.639478    2.710690   -0.847657
H      3.465767    2.796725    0.963064
H      0.124052   -3.133146    0.330840
H     -2.630293    2.940323   -2.373795
