85

C      4.247769    0.923591   -1.696918
C      4.100930    0.298341    0.649447
C     -0.997365   -3.477126    1.051205
C     -2.297592   -2.396875   -0.701466
C      0.222042    1.839999    0.634459
C     -2.194373    0.644397   -0.177351
C      1.616319    1.233096    0.649428
C      1.449986   -0.197236    0.205242
C      0.060870   -0.459879   -0.365537
C      3.293699    0.663591   -0.567676
C     -1.185243   -2.190643    0.289457
C     -1.035817    0.005834    0.545606
N     -4.809642    2.175722   -1.138117
O     -4.287496    3.612532    0.962247
O     -4.822145    1.298845    1.396509
O     -0.543111    0.973314    1.433911
O     -2.489291    1.918076    0.322481
O      2.442690    1.753648   -0.325560
O      2.368928   -0.335400   -0.847432
O     -0.048385   -1.858524   -0.428251
O     -1.421098   -1.157452    1.178358
S     -4.126218    2.203216    0.437512
C     -3.724632    0.441564   -1.276844
C     -4.405147   -0.098417    1.028274
C      2.465573   -2.590626    0.087544
C      0.407479   -2.996738   -1.148171
C     -0.270012    2.041694   -0.013202
C      2.363673    0.452879    0.804189
C     -1.505679    1.308256   -0.407135
C     -1.177026   -0.180029   -0.362901
C     -0.025072   -0.319597    0.625748
C     -3.240543    0.208973    0.143013
C      1.138745   -1.971837   -0.330097
C      1.185493    0.239508   -0.090514
N      5.308784    2.789194   -0.101215
O      3.197698    2.712690   -1.660148
O      2.843520    3.213883    0.754360
O      0.809541    1.429858   -0.671118
O      3.456741    0.763978    0.004952
O     -2.527701    1.352360    0.540408
O     -2.306359   -0.826414    0.092134
O      0.350479   -1.653430    0.761164
O      1.393790   -0.790691   -1.021267
S      3.621456    2.406344   -0.244176
Mg     0.000000    0.000000    0.000000
H      4.725335   -0.052724   -1.946827
H      3.770495    1.316392   -2.607156
H      5.036678    1.600627   -1.316640
H      4.718034   -0.584141    0.365136
H      3.489569   -0.025623    1.508429
H      4.722524    1.164670    0.943825
H     -0.651775   -4.305418    0.404877
H     -0.271895   -3.366700    1.891156
H     -1.976042   -3.759707    1.466051
H     -2.205699   -1.602674   -1.481631
H     -3.298319   -2.449731   -0.247169
H     -2.078293   -3.351094   -1.235190
H      0.201857    2.877718    0.991176
H     -0.170873    1.842952   -0.413679
H     -2.005345    0.783651   -1.263365
H     -3.115213    0.036307    0.010827
H      1.991402    1.343376    1.675162
H      1.697576   -0.932408    0.984617
H     -0.053058   -0.039002   -1.373918
H     -4.072414    2.032459   -1.863235
H     -4.722562   -0.029920   -1.426325
H     -3.040633   -0.046815   -2.013782
H     -3.861009    1.517547   -1.482969
H     -4.987122    0.818809    1.184341
H     -4.114512   -0.624533    1.949311
H     -5.059884   -0.807263    0.460133
H      2.484927   -2.773968    1.188491
H      2.617318   -3.594253   -0.377853
H      3.313102   -1.970228   -0.255006
H      0.505337   -3.967627   -0.598937
H     -0.672116   -2.820053   -1.241942
H      0.905774   -3.173534   -2.131905
H     -0.107916    2.146374    1.066842
H     -0.353806    3.078170   -0.423972
H      2.160506    1.322095    1.440373
H      2.612150   -0.395199    1.454748
H     -1.823404    1.634023   -1.404512
H     -0.867836   -0.446093   -1.380158
H     -0.248240    0.178466    1.573657
H      5.899126    2.020603   -0.509154
