46

C     -3.451058    3.069139    0.458852
C      1.472005    2.038250    1.548491
C      3.584031   -1.822112   -0.862847
C     -2.973127    1.692374    0.910218
C     -1.441177   -2.966994   -0.571236
C     -2.555937   -2.526940    0.313066
C      4.229051    1.871930   -0.950902
C      3.299980    2.335844   -0.053024
C      4.300181    0.512711   -1.194569
C     -0.795580   -1.794868   -1.225551
C     -2.013222    1.077321   -0.090652
C     -2.779077   -1.059490    0.404232
C      2.455799    1.456736    0.590996
C      3.446497   -0.359460   -0.540958
C     -0.454757   -0.751188   -0.218056
C      2.506616    0.088731    0.364692
C      0.501021   -1.188435    0.824562
N      1.680860   -0.813326    1.008491
N     -1.629121   -0.228522    0.449046
O      0.019123   -2.162128    1.733242
H     -4.559665    3.092563    0.483082
H     -3.082524    3.276017   -0.554992
H     -3.043438    3.849734    1.137976
H      1.942511    2.793217    2.216152
H      1.027426    1.259237    2.196137
H      0.721944    2.567878    0.935230
H      3.450045   -2.416355    0.069716
H      4.611712   -2.028160   -1.207151
H      2.802535   -2.154022   -1.566928
H     -2.471068    1.771477    1.904144
H     -3.847484    1.020412    0.990152
H     -0.715350   -3.554402    0.032361
H     -1.799914   -3.655679   -1.375593
H     -2.537489   -3.011669    1.334931
H     -3.516753   -2.950292   -0.127775
H      4.880981    2.604239   -1.439561
H      3.246419    3.414448    0.137761
H      5.029355    0.128712   -1.901751
H     -1.501391   -1.341362   -1.955483
H      0.162999   -2.092938   -1.731122
H     -1.170256    1.714541   -0.352018
H     -2.613820    0.921483   -1.035307
H     -3.352233   -0.900544    1.371689
H     -3.471102   -0.688921   -0.396665
H      0.020501    0.102182   -0.792470
H      0.383953   -2.191370    2.686798
