33

C     -5.081112   -1.483983    1.234547
C      5.300370   -0.194894   -0.220425
C      4.547761   -0.899852    0.685058
C      4.661832    0.748152   -1.016606
C      3.179489   -0.690732    0.817997
C      3.318602    0.975663   -0.908655
C      1.129817    0.483736    0.142858
C      0.450867   -0.461349   -0.810145
C     -1.577573   -0.539495    0.600008
C     -3.564126    0.632872   -0.143185
C      2.597597    0.251931    0.007917
C     -1.031741   -0.274574   -0.762867
C     -3.032640   -0.244629    0.676487
C     -2.781277    1.336117   -1.137192
O     -3.305875    2.172095   -1.908861
O     -3.832146   -0.915673    1.635778
O     -1.418176    1.048228   -1.204008
H     -5.543693   -1.950964    2.101054
H     -5.001237   -2.093057    0.336816
H     -5.734466   -0.602272    0.967970
H      6.379450   -0.367780   -0.317162
H      5.022103   -1.641277    1.318012
H      5.215398    1.322623   -1.739431
H      2.622949   -1.276517    1.553052
H      2.826773    1.703619   -1.523519
H      0.854299    1.545630   -0.018891
H      0.833292    0.186011    1.190401
H      0.840539   -0.334082   -1.847251
H      0.752209   -1.490825   -0.488119
H     -1.349741   -1.577628    0.898520
H     -1.097959    0.119590    1.382941
H     -4.643561    0.803233   -0.030086
H     -1.538026   -0.977867   -1.473012
