28

C     -1.994449   -0.164386   -2.059389
C      4.275738    0.843539    0.491696
C      4.707928   -0.446384    0.332841
C      2.968154    1.183035    0.353477
C      3.746105   -1.408570    0.020694
C      0.624288    0.448052   -0.127613
C     -1.656065   -0.621737   -0.656188
C      1.950416    0.259951    0.039688
C      2.425826   -1.016789   -0.110358
C     -0.181314   -0.563321   -0.424695
C     -3.771648    0.174347    0.446460
N     -4.355635    1.200335    0.958106
N     -2.357924    0.116205    0.344821
O     -4.595767   -0.856354    0.006687
O     -1.655620    0.809069    1.263484
S      0.921227   -1.949023   -0.499127
H     -2.396971    0.852081   -2.096161
H     -1.039322   -0.168043   -2.638233
H     -2.660549   -0.889344   -2.589483
H      5.026396    1.629953    0.741465
H      5.728986   -0.713363    0.440436
H      2.724550    2.225727    0.497836
H      4.046657   -2.438870   -0.112915
H      0.174704    1.476955   -0.017630
H     -1.944134   -1.689671   -0.579235
H     -3.757613    1.983149    1.293576
H     -5.473482   -0.588164   -0.465557
H     -1.480482    0.311619    2.083681
