30

C     -1.471287    0.568405    1.334591
C     -2.518382    0.666776   -0.912654
C      1.448642    1.409602    1.099324
C     -0.228845   -0.531541   -1.684333
C      0.140148   -1.745265    0.434699
C     -0.918295   -1.157206   -0.461796
C     -0.055150    0.705142   -0.783753
C      1.393793   -0.931053    0.441831
C     -1.291936    0.246903   -0.090884
C      1.215712    0.476799   -0.045273
O      2.351690   -1.639909   -0.318274
O      2.263837    0.712491   -0.970160
H     -2.578355    0.593108    1.561987
H     -1.035915   -0.118958    2.059012
H     -1.152702    1.640911    1.493020
H     -3.022127   -0.213238   -1.363730
H     -2.249017    1.335068   -1.742419
H     -3.293312    1.131911   -0.243770
H      1.083937    1.003419    2.081766
H      1.094607    2.440650    0.918789
H      2.561871    1.487521    1.238967
H      0.709439   -1.011246   -1.960676
H     -0.932394   -0.278892   -2.483038
H      0.319408   -2.791464    0.045973
H     -0.233360   -1.899102    1.472009
H     -1.716752   -1.829705   -0.769007
H     -0.083565    1.657639   -1.308534
H      1.811515   -0.950286    1.491218
H      3.251925   -1.474511    0.018675
H      3.134869    0.496032   -0.553560
