34

C     -4.609428   -0.277220    0.175388
C     -3.863683    0.999169   -0.138234
C      3.901512    0.056323   -1.605955
C      2.571176    0.380035   -1.764681
C      4.413403   -0.335082   -0.386834
C      0.181254   -1.082092    1.144845
C      1.283754   -0.149533    1.692841
C     -2.481057    0.656982   -0.713033
C      0.316500    0.630308   -0.683618
C      1.758736    0.298669   -0.650048
C     -0.460034   -0.494149   -0.067795
C      2.275671   -0.100743    0.596209
C      3.580881   -0.415438    0.740436
N     -1.806103   -0.095007    0.301291
O      4.084353   -0.803825    1.959046
H     -4.728753   -0.430370    1.267926
H     -5.584249   -0.227906   -0.361419
H     -4.055848   -1.154289   -0.265300
H     -4.392532    1.668934   -0.831986
H     -3.708805    1.555267    0.826640
H      4.559894    0.110215   -2.456538
H      2.147431    0.686367   -2.698911
H      5.457288   -0.586636   -0.268298
H      0.702798   -2.029984    0.833266
H     -0.552367   -1.323469    1.914252
H      0.786890    0.855017    1.797913
H      1.609270   -0.564931    2.631292
H     -2.599969    0.044738   -1.615850
H     -1.955553    1.622329   -0.947904
H     -0.034666    0.865442   -1.708158
H      0.186278    1.535615   -0.020239
H     -0.581761   -1.270632   -0.869884
H     -1.904950    0.232623    1.264132
H      3.502670   -0.856724    2.759265
