30

C     -2.960640   -0.011400    0.829273
C     -2.881353    1.203003   -0.057118
C     -1.483448   -0.325146    0.992509
C     -1.905541    0.766927   -1.125159
C      1.091815   -1.260212    0.103452
C     -0.925640   -0.053427   -0.379816
C      0.243022   -0.461746   -0.829982
C      2.429413   -0.597660    0.342626
C      0.653268   -0.163785   -2.173757
C      2.276788    0.748198    0.934147
N      3.159801   -1.437290    1.272471
O      1.777183   -0.559691   -2.569873
O     -0.141173    0.536573   -3.038313
O      2.750035    0.998124    2.069849
O      1.615397    1.770236    0.267699
H     -3.465995    0.174955    1.782532
H     -3.410485   -0.829197    0.232841
H     -3.859177    1.491123   -0.480930
H     -2.411431    2.020272    0.524381
H     -1.341973   -1.412534    1.199101
H     -1.042508    0.343765    1.739052
H     -1.424869    1.659456   -1.599132
H     -2.395536    0.124075   -1.866968
H      1.275536   -2.235264   -0.377422
H      0.631356   -1.409746    1.080198
H      3.034952   -0.551570   -0.583451
H      4.041084   -1.813381    0.874696
H      2.600127   -2.248917    1.607175
H      0.109402    0.813132   -3.983030
H      1.960588    2.721126    0.403436
