37

C      0.084515   -2.843957    0.691076
C     -1.848635    2.311957    1.092405
C      4.639427    0.532626   -1.339344
C     -0.832288    1.513937   -1.217990
C     -1.993831   -0.620421   -1.101500
C     -1.308472   -1.302776    1.943715
C     -1.724560    0.127560    2.155576
C      2.269730    0.052594   -0.606200
C      1.083829   -0.522299   -0.726141
C     -0.399592   -1.494675    0.990216
C     -2.061246    0.816681    0.860067
C      3.348235   -0.153426   -1.557288
C      0.055253   -0.251887    0.288439
C     -1.191849    0.381423   -0.295473
O      3.227429   -0.892015   -2.558577
H     -0.715038   -3.599104    0.938197
H      0.345425   -2.998450   -0.378046
H      0.959471   -3.137850    1.311560
H     -0.735222    2.456294    1.030559
H     -2.108617    2.521511    2.148593
H     -2.382515    2.931673    0.368867
H      5.176458   -0.008124   -0.537025
H      4.468340    1.572241   -0.977328
H      5.286003    0.522540   -2.240758
H     -0.598942    1.056055   -2.223079
H      0.029958    2.096768   -0.839220
H     -1.679449    2.192289   -1.397514
H     -2.586811   -1.296044   -0.428252
H     -2.744247   -0.041449   -1.678763
H     -1.381624   -1.178382   -1.820506
H     -1.724407   -2.104929    2.528998
H     -0.946243    0.678715    2.732907
H     -2.631569    0.111550    2.810430
H      2.417744    0.704510    0.252638
H      0.935184   -1.169527   -1.577713
H     -3.140859    0.601069    0.655589
H      0.409015    0.433324    1.085882
