23

C     -2.682984   -0.944847    1.077483
C      3.660097   -0.940476    0.480311
C      0.633322    1.549474   -1.428593
C     -0.673739    1.275856   -1.177933
C      1.630107    0.801781   -0.857571
C      0.001205   -0.523036    0.238881
C     -2.436758   -0.023436   -0.098467
C     -1.001181    0.216143   -0.325217
C      1.347346   -0.245468   -0.015901
O     -3.116766    1.161390    0.142056
O      2.275997   -1.040616    0.594633
H     -2.307041   -0.510407    2.029376
H     -2.203851   -1.944114    0.924172
H     -3.762961   -1.144728    1.186727
H      4.112076   -1.047225    1.503780
H      4.034898   -0.006446    0.059022
H      4.019848   -1.811620   -0.108709
H      0.897851    2.381534   -2.098308
H     -1.454481    1.870136   -1.632090
H      2.671296    1.020475   -1.057835
H     -0.255298   -1.341620    0.897690
H     -2.854039   -0.529910   -0.996702
H     -2.534944    1.777159    0.663195
