108

C     12.309990   -0.005462   -3.056137
C    -13.142962   -2.257424    0.554653
C     10.880075   -0.388545   -2.937966
C    -13.361702   -0.843643    0.982219
C     10.602491   -1.602417   -2.094365
C    -12.646664   -0.422982    2.204137
C     11.077498   -1.433213   -0.665532
C    -11.188144   -0.451670    2.276381
C     10.422414   -0.275392    0.013332
C    -10.359519    0.362100    1.371794
C     10.795772   -0.014306    1.404363
C    -10.319706    0.043072   -0.079175
C     10.551798   -1.038029    2.438531
C     -9.687199   -1.335741   -0.256948
C      9.128581   -1.453985    2.651069
C     -9.646633   -1.670284   -1.678528
C      8.323816   -0.264012    3.030307
C     -8.984442   -0.908967   -2.713349
C      6.906623   -0.634070    3.285047
C     -7.572327   -0.687638   -2.817087
C      6.171691   -1.270171    2.163219
C     -6.714756    0.100329   -1.966875
C      6.082187   -0.481996    0.905665
C     -6.520309   -0.166397   -0.546296
C      5.422497    0.867706    1.041194
C     -5.445259    0.745971    0.079965
C      5.423601    1.534631   -0.296044
C     -4.110285    0.574331   -0.559415
C      4.659652    0.791977   -1.328727
C     -3.121509    1.508565    0.148180
C      0.963209    3.342364   -1.172187
C      1.467715    1.606795    0.541325
C      0.518119    2.012441   -0.563417
C      3.207352    0.735635   -0.906557
C     -1.804722    1.340601   -0.485276
O      0.993044    4.366769   -0.236074
O      2.432157   -0.061551   -1.473470
O     -1.643172    0.532534   -1.414162
O      2.773097    1.558620    0.080615
O     -0.760367    2.101512   -0.022676
H     12.650413    0.111109   -4.127943
H     12.471229    1.017557   -2.602122
H     13.024923   -0.675751   -2.574998
H    -14.083212   -2.861442    0.482316
H    -12.704301   -2.233279   -0.472161
H    -12.462811   -2.829304    1.211485
H     10.277195    0.506200   -2.607608
H     10.508594   -0.620266   -3.962648
H    -13.331208   -0.124052    0.127247
H    -14.493549   -0.809986    1.250424
H     11.127840   -2.452088   -2.535644
H      9.522955   -1.794316   -2.122381
H    -13.051314    0.617050    2.472397
H    -13.023693   -1.111178    3.037675
H     12.166187   -1.387743   -0.702617
H     10.796241   -2.362634   -0.130798
H    -10.898436   -0.176459    3.350114
H    -10.880495   -1.548942    2.256884
H     10.734629    0.636392   -0.584017
H      9.329678   -0.322080   -0.154822
H    -10.597703    1.470478    1.523490
H     -9.281825    0.320826    1.728015
H     10.277828    0.934304    1.732190
H     11.890191    0.275316    1.494350
H     -9.624175    0.807825   -0.544473
H    -11.243532    0.119785   -0.640999
H     10.885113   -0.577535    3.419272
H     11.235971   -1.933271    2.345850
H     -8.804213   -1.465731    0.359835
H    -10.417785   -2.088104    0.215916
H      8.702723   -2.044944    1.825424
H      9.135006   -2.140550    3.548950
H     -9.366251   -2.806834   -1.787411
H    -10.758516   -1.762273   -1.999938
H      8.771417    0.195512    3.934925
H      8.364011    0.458373    2.188882
H     -9.353468   -1.333828   -3.744167
H     -9.507327    0.143292   -2.815987
H      6.831118   -1.350689    4.159144
H      6.333949    0.255368    3.630080
H     -7.046566   -1.740667   -3.009400
H     -7.413648   -0.308274   -3.938483
H      5.125308   -1.447317    2.517671
H      6.571959   -2.274224    1.904230
H     -5.699208    0.163248   -2.516808
H     -7.011753    1.220771   -2.056899
H      5.470669   -1.113690    0.190717
H      7.029835   -0.320491    0.380838
H     -7.443010    0.220115    0.015211
H     -6.338377   -1.182002   -0.211555
H      6.038824    1.524791    1.717957
H      4.424771    0.823668    1.457910
H     -5.372559    0.439621    1.138473
H     -5.789452    1.789570    0.070618
H      4.930518    2.540790   -0.173844
H      6.471884    1.677135   -0.670281
H     -4.070912    0.878238   -1.619382
H     -3.696640   -0.431929   -0.490484
H      4.667669    1.364849   -2.286388
H      4.965835   -0.231498   -1.536646
H     -3.498423    2.552854    0.124350
H     -3.063788    1.173365    1.218877
H      1.960224    3.211108   -1.654384
H      0.280738    3.644698   -1.990183
H      1.358794    2.335497    1.385422
H      1.116788    0.618400    0.940312
H      0.555881    1.259011   -1.377838
H      0.237533    4.192980    0.384124
