108

C    -14.240385   -0.112144    3.448160
C     15.706403    0.591385   -0.862569
C    -14.444605   -0.215962    1.958559
C     14.783655   -0.602329   -0.837750
C    -13.421418   -1.137616    1.321763
C     14.251369   -0.888265    0.533000
C    -12.024142   -0.617849    1.570467
C     13.340187   -2.087537    0.485424
C    -11.045423   -1.573527    0.920105
C     12.160195   -1.895345   -0.424861
C    -11.317001   -1.641348   -0.544274
C     11.325094   -0.713715    0.041364
C    -11.200059   -0.309661   -1.224181
C     10.133579   -0.496200   -0.857567
C     -9.754533    0.188943   -1.024600
C      9.291826    0.663210   -0.433964
C     -9.583236    1.517500   -1.698355
C      8.745104    0.467696    0.951101
C     -8.256671    2.122951   -1.530076
C      7.906587    1.630077    1.416168
C     -7.033570    1.525593   -2.055120
C      6.750835    1.821662    0.495706
C     -6.524406    0.213754   -1.616171
C      5.821344    0.657403    0.381431
C     -5.170494    0.018314   -2.384342
C      5.188431    0.289769    1.712267
C     -4.620815   -1.298010   -1.955373
C      4.411147    1.432510    2.267904
C     -4.335912   -1.381451   -0.470653
C      3.323037    1.882811    1.361377
C      0.554178   -0.490037   -1.448722
C     -1.083229    0.581921    0.105203
C      0.332377    0.020284   -0.020607
C     -3.341072   -0.295375   -0.171408
C      2.330205    0.807383    1.150963
O      0.408584    0.630056   -2.277357
O     -3.725724    0.877227    0.108862
O      2.325700   -0.296482    1.748693
O     -1.968469   -0.494144   -0.182578
O      1.299202    0.988321    0.224424
H    -15.070837    0.448428    3.895571
H    -14.220551   -1.144959    3.862560
H    -13.310045    0.385104    3.723149
H     16.542445    0.481854   -0.148487
H     15.159195    1.548483   -0.753650
H     16.171408    0.614885   -1.889485
H    -14.334124    0.774710    1.466203
H    -15.439472   -0.604038    1.726438
H     13.954550   -0.411833   -1.527144
H     15.404598   -1.494468   -1.124239
H    -13.543956   -2.186180    1.598986
H    -13.605964   -1.049862    0.218446
H     15.090597   -1.154172    1.234565
H     13.716126   -0.028558    0.992774
H    -11.802522   -0.577550    2.668238
H    -11.938637    0.401011    1.183724
H     13.907133   -2.979748    0.146414
H     12.930687   -2.325836    1.496878
H    -11.159873   -2.601033    1.358198
H    -10.028990   -1.253182    1.139815
H     12.442507   -1.778090   -1.489947
H     11.562669   -2.835374   -0.380408
H    -12.266477   -2.162194   -0.793810
H    -10.476866   -2.269172   -0.984020
H     11.963884    0.190941   -0.019221
H     11.038366   -0.879948    1.087689
H    -11.914797    0.445802   -0.867164
H    -11.336020   -0.437835   -2.317105
H      9.500704   -1.410850   -0.771830
H     10.418410   -0.360957   -1.911732
H     -9.110948   -0.557857   -1.469345
H     -9.545189    0.355289    0.052121
H      8.404524    0.670960   -1.133741
H      9.797208    1.638228   -0.504434
H    -10.334970    2.266525   -1.261800
H     -9.888454    1.428159   -2.785934
H      8.104854   -0.437721    1.020209
H      9.557396    0.346005    1.708639
H     -8.349109    3.221316   -1.863012
H     -8.158250    2.296568   -0.380375
H      8.495288    2.590198    1.396107
H      7.611745    1.419587    2.460884
H     -6.177429    2.267643   -1.821834
H     -7.002878    1.536086   -3.194900
H      7.123829    2.078781   -0.515514
H      6.113922    2.700224    0.791532
H     -7.070049   -0.683529   -1.927688
H     -6.332656    0.179912   -0.527951
H      6.317885   -0.262715    0.002275
H      5.032972    0.919742   -0.347297
H     -5.395639   -0.036123   -3.467195
H     -4.534840    0.883372   -2.207098
H      6.014701   -0.014116    2.407198
H      4.545086   -0.577876    1.558965
H     -3.617386   -1.421935   -2.458216
H     -5.311629   -2.094121   -2.289981
H      3.914053    1.049803    3.206423
H      5.048085    2.312963    2.515175
H     -3.749313   -2.338644   -0.342187
H     -5.211902   -1.345886    0.169335
H      3.692328    2.266168    0.383339
H      2.755622    2.702243    1.899024
H      1.583705   -0.893147   -1.536925
H     -0.191998   -1.250800   -1.726604
H     -1.222620    1.435817   -0.554880
H     -1.190665    0.935414    1.149917
H      0.513924   -0.850270    0.621913
H      1.116775    1.303201   -2.029971
