33

C      3.253338    0.239206   -1.066801
C      2.415484    1.326661   -0.392819
C      3.235530   -0.953683   -0.187129
C     -2.076129    0.161427   -0.726849
C     -3.515724    0.572985   -0.492736
C      0.968773    0.833641   -0.532924
C      1.972047   -1.267312    0.493959
C     -1.559395    0.210200    0.718059
C     -3.789723   -0.089678    0.808646
C     -0.367109   -0.662045    0.886395
N     -2.696105   -0.270763    1.440817
N      0.883251   -0.365229    0.273958
O     -5.071266   -0.445575    1.239121
O     -0.532114   -1.685359    1.608233
O     -0.000568    0.364027   -0.000000
H      2.736822   -0.022322   -2.033358
H      4.272306    0.598547   -1.247889
H      2.552365    2.302867   -0.858581
H      2.695758    1.307564    0.684419
H      4.047909   -0.817967    0.585047
H      3.590238   -1.843454   -0.785480
H     -1.563433    0.859950   -1.384496
H     -2.045431   -0.894884   -1.098989
H     -3.512071    1.665097   -0.330498
H     -4.187071    0.245639   -1.292981
H      0.810234    0.624976   -1.615312
H      0.342060    1.656824   -0.168982
H      2.111950   -1.349584    1.611095
H      1.607175   -2.291490    0.191975
H     -1.330824    1.282402    0.936541
H     -5.248844   -0.928641    2.092341
H     -0.816390   -0.182218   -0.000000
H      0.816958   -0.181809    0.000000
