18

C     -1.704404    1.211996    0.063502
C      2.949939   -0.310297   -0.340205
C     -1.188400   -1.201927   -0.342611
C     -0.738429    0.094340    0.316422
C      0.634143    0.407907   -0.122910
O     -1.306831   -1.080456   -1.716046
O      0.985420    1.485864   -0.654395
O      1.606713   -0.566172    0.068257
H     -1.252988    1.895656   -0.695541
H     -2.709145    0.850506   -0.241839
H     -1.864778    1.834244    0.991717
H      3.482099    0.193103    0.492182
H      3.452527   -1.240599   -0.628775
H      2.910424    0.387207   -1.188178
H     -0.387971   -1.950929   -0.120139
H     -2.155414   -1.548680    0.070504
H     -0.778834   -0.118989    1.421281
H     -1.934070   -0.342772   -1.942631
