42

C     -3.888617   -0.764337    0.971181
C     -3.288976    1.475280    0.235786
C      2.004950   -1.697477   -0.774302
C      0.244210   -0.050116   -2.049672
C      3.538965    0.578604    0.071520
C      2.940115    1.775656   -0.585142
C     -0.959003   -1.515324    0.611771
C      2.489190   -0.054561    0.954676
C      0.451569   -1.338345    1.093922
C     -0.567267    0.856438    0.079479
C     -2.757675    0.219211    0.897179
C     -1.585630   -0.264986    0.094387
C      1.500174    1.638302   -0.873439
C      1.351930   -0.640860    0.124608
C      0.697375    0.425864   -0.672644
O      0.927255    2.626028   -1.319923
H     -4.133264   -1.153709   -0.043916
H     -4.795978   -0.183510    1.282428
H     -3.750275   -1.550053    1.716048
H     -4.368233    1.559423    0.495133
H     -3.278811    1.260516   -0.872730
H     -2.714886    2.375438    0.494405
H      1.243746   -2.395120   -1.177031
H      2.670862   -2.294584   -0.115333
H      2.586408   -1.255963   -1.581745
H     -0.631696    0.581857   -2.376113
H     -0.069897   -1.092425   -2.048521
H      1.041809    0.169463   -2.799090
H      4.003061   -0.137458   -0.631158
H      4.350527    0.926226    0.742603
H      3.062402    2.700477    0.050969
H      3.514292    2.001096   -1.521146
H     -1.539611   -1.937099    1.462420
H     -0.939723   -2.326048   -0.161134
H      2.070580    0.724050    1.597047
H      2.903909   -0.898780    1.557673
H      0.430427   -0.863403    2.101258
H      0.867890   -2.369353    1.263562
H     -0.981857    1.772695   -0.396977
H     -0.240233    1.072789    1.119209
H     -2.466972    0.488447    1.931299
H     -1.933039   -0.444349   -0.948546
