23

C     -2.580718   -1.111661   -0.357815
C      3.309590   -1.262432    0.109097
C      0.109159    2.255397   -0.669425
C     -0.900797    1.468660   -0.171671
C      1.401096    1.782417   -0.726342
C      0.651595   -0.314042    0.235886
C     -1.733455   -0.622636    0.804115
C     -0.625669    0.205228    0.271907
C      1.652628    0.503470   -0.272257
O     -2.500913    0.187040    1.665069
O      2.959746    0.016515   -0.326543
H     -2.434270   -2.202589   -0.537994
H     -2.320593   -0.523924   -1.273611
H     -3.644347   -0.937483   -0.158751
H      3.337531   -1.254019    1.225497
H      2.560704   -2.002547   -0.253210
H      4.296678   -1.548908   -0.304129
H     -0.125472    3.258676   -1.018630
H     -1.908005    1.860971   -0.136535
H      2.217342    2.405580   -1.123651
H      0.836478   -1.315974    0.593894
H     -1.396341   -1.510367    1.350143
H     -3.161968    0.662630    1.074957
