62

C      9.068003    0.919440    0.600358
C      0.103812   -1.808059    0.974822
C      3.568632    1.532548   -2.185877
C     -3.411329   -2.433297   -1.764877
C      8.042239    2.006672    0.505337
C     -5.379425    0.893314    0.418376
C     -5.767724   -0.668644    2.104241
C     -6.194877    1.817603    1.042231
C     -6.591287    0.242433    2.749507
C     -0.784624   -0.721437   -1.631420
C     -1.840078    0.143770   -1.005941
C      1.415803    0.361766   -1.835888
C      2.243364   -0.608794    0.593835
C      4.962176    0.105533    1.531978
C      0.959906   -0.931614    0.123462
C      2.679394    0.663141   -1.343154
C     -3.920874   -1.151272   -1.139670
C     -5.137790   -0.357776    0.911064
C      0.571308   -0.431082   -1.096834
C     -6.806784    1.493831    2.215860
C      3.106013    0.183805   -0.128038
C      6.323047    0.700152    1.564417
C     -4.280211   -1.378840    0.300205
N     -3.157748   -0.016478   -1.418273
O     -7.629748    2.439122    2.836894
O      7.067218    0.529918    2.552856
O     -5.021002   -2.587618    0.314596
O      6.757034    1.438852    0.498436
O      4.336583    0.471960    0.366330
Cl     0.684352    0.000000    0.000000
H      8.753346    0.003047    1.103076
H      9.956434    1.341147    1.126550
H      9.327039    0.616115   -0.442103
H     -0.537724   -1.232013    1.645024
H      0.801263   -2.371236    1.677017
H     -0.394791   -2.623154    0.413820
H      2.939419    2.231308   -2.766292
H      4.141989    0.943843   -2.934724
H      4.254106    2.144311   -1.565737
H     -2.854484   -2.196429   -2.681952
H     -4.287631   -3.057810   -2.138628
H     -2.910045   -3.102276   -1.053430
H      8.137304    2.576766   -0.459263
H      8.079478    2.699785    1.375002
H     -4.929934    1.194227   -0.491628
H     -5.656215   -1.619584    2.597192
H     -6.343053    2.785548    0.600317
H     -7.089335    0.010833    3.680652
H     -0.988567   -1.773045   -1.297694
H     -0.733447   -0.661838   -2.730588
H     -1.662527    0.148298    0.091364
H     -1.543426    1.206716   -1.294996
H      1.130792    0.768796   -2.802679
H      2.571356   -0.996285    1.556942
H      4.987166   -0.988852    1.729680
H      4.444333    0.530015    2.445283
H     -4.928847   -0.979141   -1.644499
H     -3.426453   -1.575703    0.969116
H     -3.455193    0.544872   -2.251958
H     -7.184118    3.076681    3.509056
H     -5.879268   -2.493893    0.784252
H     -0.684352    0.000000    0.000000
