58

C      7.102166    0.369811   -0.480705
C      6.768325   -1.458757    1.062809
C      4.872668    0.248924    0.551654
C      4.566946    1.456529   -0.301293
C     -4.834751   -3.328740    1.339089
C     -0.579227   -0.055647    1.541755
C      6.280359   -0.249383    0.342774
C     -4.168177   -2.350732    0.361683
C      0.157916    0.591081    0.434995
C     -4.919112   -1.034196    0.543427
C     -0.247236    2.046006    0.233899
C     -4.341966   -0.027986   -0.453083
C      0.209373    2.376817   -1.173122
C      1.438672    1.607841   -1.560850
C     -2.960855   -0.467455   -0.863933
C      2.254967    1.086355   -0.416781
C     -2.195071   -1.117012    0.236058
O     -6.173722   -3.516638    1.035889
O     -6.267105   -1.203566    0.309918
O     -1.537871    2.338171    0.516457
O     -4.387399    1.267376    0.019307
O      0.382914    3.764063   -1.322566
O      1.099858    0.616775   -2.480186
O     -3.060088   -1.278344   -1.999114
O      3.311788    1.928278   -0.116954
O     -1.913708   -0.250788    1.280471
O     -2.858246   -2.238056    0.749246
O      1.538903    0.717497    0.712594
H      8.108654   -0.025917   -0.605032
H      6.773843    1.255631   -1.015506
H      5.932565   -2.171148    1.291367
H      7.189644   -1.117122    2.030580
H      7.571423   -1.976546    0.500267
H      4.803694    0.530988    1.636265
H      4.175487   -0.584546    0.386932
H      5.280694    2.267140   -0.053494
H      4.800594    1.153820   -1.343312
H     -4.734076   -2.921857    2.355309
H     -4.294455   -4.312238    1.255821
H     -0.520221    0.603942    2.443945
H     -0.149184   -1.042240    1.814108
H     -4.294377   -2.741579   -0.662658
H     -0.027220    0.061340   -0.513101
H     -4.748111   -0.670711    1.564662
H      0.392696    2.696463    0.902317
H     -4.977591   -0.053028   -1.373703
H     -0.639963    2.111778   -1.839605
H      2.099247    2.331314   -2.119276
H     -2.408719    0.431886   -1.196800
H      2.721529    0.143428   -0.782345
H     -1.230406   -1.499359   -0.210098
H     -6.745177   -3.070266    1.725049
H     -6.681742   -0.401081   -0.098532
H     -1.663972    2.782416    1.393078
H     -5.292508    1.658529   -0.178211
H      1.344343    3.936967   -1.170906
H      1.565523   -0.228510   -2.339827
H     -3.892535   -0.987719   -2.484912
