48

C     -4.700975    0.694479    1.299802
C     -3.340479    1.181456    1.738365
C     -4.748858    0.266496   -0.125964
C      4.124253   -2.520561    0.857998
C      2.911943   -2.362809    1.686751
C     -2.244110    0.195915    1.517803
C      0.792203    2.278917   -1.012974
C     -2.643313   -0.697907   -0.870189
C      4.094552   -0.146528   -0.574183
C     -4.020768   -1.024086   -0.340479
C      2.780631   -1.992897    0.274548
C      1.915111    1.456052   -0.860408
C      4.243826    1.137471   -1.053472
C     -0.442664    1.775167   -0.676768
C      0.538943   -0.277536   -0.066776
C      1.815021    0.157401   -0.382886
C     -0.599169    0.494049   -0.198894
C      3.151125    1.957624   -1.202682
C      5.531110    1.655434   -1.408876
Cl     0.326387   -1.889534    0.514942
F     -1.567743    2.545874   -0.811328
N     -4.678479   -1.919539   -1.252923
N     -1.880030   -0.026863    0.150367
N      2.894128   -0.643183   -0.237603
O      3.226899    3.136007   -1.634011
O      6.545934    0.935168   -1.284962
O      5.693841    2.938054   -1.889604
H     -5.389501    1.582035    1.401281
H     -5.096577   -0.061597    1.995152
H     -3.418896    1.311078    2.859560
H     -3.121952    2.201455    1.362790
H     -5.807646    0.112125   -0.405746
H     -4.365090    1.096207   -0.754095
H      4.460897   -3.517467    0.577386
H      4.914796   -1.825985    1.124974
H      2.456863   -3.308142    2.017863
H      2.818200   -1.552530    2.423825
H     -2.561693   -0.765744    1.973624
H     -1.366214    0.532119    2.125874
H      0.928953    3.274187   -1.386317
H     -2.189596   -1.681521   -1.165227
H     -2.786944   -0.059199   -1.776282
H      5.021118   -0.711367   -0.502700
H     -3.891383   -1.560480    0.632562
H      2.445162   -2.715935   -0.528576
H     -5.393264   -2.463239   -0.695030
H     -3.968224   -2.630878   -1.567418
H      6.591672    3.440756   -1.869092
