24

C      3.421146   -0.814783   -0.133746
C     -3.978904   -0.564447    0.069396
C     -2.992555    0.254777    0.412314
C      0.703786    0.118732   -0.267872
C      1.908664    0.946831    0.122831
C     -3.606458   -1.802970   -0.456313
C     -0.460867    0.628948    0.556735
C     -1.700176   -0.115615    0.249808
N      3.092723    0.526233   -0.622016
O     -0.681090    1.944111    0.086926
S     -1.822061   -1.725772   -0.431931
H      2.781702   -1.527881   -0.710487
H      3.164019   -0.926004    0.929929
H      4.487051   -1.022090   -0.321916
H     -5.060362   -0.359146    0.161389
H     -3.216694    1.272547    0.844358
H      0.510960    0.271788   -1.359600
H      0.919940   -0.944809   -0.105749
H      1.688604    2.006966   -0.110737
H      2.067320    0.865243    1.221613
H     -4.250036   -2.665410   -0.815159
H     -0.162138    0.600526    1.604812
H      3.884178    1.163946   -0.358801
H     -0.698752    1.868279   -0.902852
