31

C     -0.396340    2.540999    0.622516
C     -0.881242    1.193374    1.070062
C      3.756754   -0.100390   -0.012710
C      3.119618    0.590173    0.995004
C      3.021160   -0.732281   -0.977889
C      1.725857    0.621511    0.996264
C      1.648012   -0.686748   -0.954834
C     -1.726891   -2.008412   -0.455590
C     -1.000144   -1.253520    0.622465
C      0.974922   -0.003778    0.040736
C     -2.823624   -1.144961   -0.952230
C     -1.096422    0.349126   -1.234314
C     -0.492673    0.071925    0.103341
N     -2.479659    0.040382   -1.340250
O     -4.106135   -1.649453   -0.967533
O     -0.447792    0.817892   -2.197690
H     -1.227065    3.099334    0.129151
H      0.486782    2.458000   -0.046721
H     -0.081737    3.113735    1.517549
H     -2.008427    1.214107    1.088416
H     -0.591155    1.014380    2.102947
H      4.834362   -0.123248   -0.011574
H      3.683391    1.095597    1.766145
H      3.552649   -1.268587   -1.759396
H      1.312873    1.199348    1.838760
H      1.064861   -1.178006   -1.710547
H     -2.108604   -2.978827   -0.062941
H     -1.022084   -2.228295   -1.304157
H     -1.681813   -1.086527    1.489141
H     -0.176649   -1.888422    1.009173
H     -4.832785   -1.088429   -1.403293
