36

C     -1.703900    1.808931    0.648615
C     -1.939680    0.384638   -1.376885
C     -3.235810   -0.114969    0.640029
C     -1.087229   -1.087364    2.549268
C     -0.689044   -2.320876   -0.203243
C      3.030398    1.634563   -1.054213
C      1.755219    1.295805   -1.193948
C      2.865712   -0.659647   -0.609155
C      3.748453    0.563121   -0.314892
C      1.503080   -0.029578   -0.562860
C     -1.895998    0.403471    0.114320
O      3.844765    0.810960    1.037201
O      0.899199    0.013305    0.631411
Si    -0.585656   -0.741597    0.813661
H     -0.638526    2.045311    0.836334
H     -2.277023    1.984659    1.580330
H     -2.044472    2.517610   -0.140087
H     -2.994615    0.603835   -1.688831
H     -1.654037   -0.554717   -1.847606
H     -1.332470    1.245743   -1.756720
H     -3.166244   -1.219975    0.715937
H     -4.066343    0.197293    0.001844
H     -3.413720    0.282348    1.672582
H     -1.585265   -0.214918    3.044610
H     -1.852529   -1.893433    2.541051
H     -0.287805   -1.407420    3.215483
H     -0.486783   -2.121569   -1.266349
H     -1.712894   -2.748580   -0.074260
H      0.020547   -3.084943    0.158812
H      3.454013    2.555289   -1.430905
H      0.995304    1.881786   -1.689625
H      3.065292   -1.381238    0.176980
H      3.124405   -1.068041   -1.597760
H      4.758231    0.440609   -0.789974
H      0.864765   -0.596586   -1.279126
H      4.720660    0.576174    1.415565
