25

C      2.686052   -0.780616   -0.510598
C     -1.948506   -1.252969    0.921385
C     -1.683129   -0.081175   -1.201502
C      1.474107    1.273686    0.269675
C     -1.001210    1.063254    0.882074
C      1.389962   -0.034768   -0.491550
C      0.114121    1.840479    0.312790
C      0.292379   -0.825519    0.104000
C     -1.077939   -0.286507    0.171430
O     -0.083637    2.945106   -0.120334
O      0.537388   -1.924341    0.535973
H      3.474344   -0.337395    0.126658
H      2.547783   -1.831010   -0.147017
H      3.089658   -0.900503   -1.557885
H     -1.380647   -1.891218    1.628839
H     -2.760504   -0.740588    1.486690
H     -2.406857   -1.946411    0.165042
H     -2.080810    0.939628   -1.314198
H     -0.925428   -0.217964   -2.008168
H     -2.505544   -0.792000   -1.413463
H      1.837281    1.117447    1.306420
H      2.157367    1.966006   -0.266982
H     -1.984089    1.555053    0.685998
H     -0.895762    0.914499    1.973282
H      1.133621    0.227827   -1.538562
