34

C     -2.146202   -0.772841   -1.283424
C     -3.116244    0.045356    0.801961
C     -1.593916   -1.940397    0.813917
C     -0.784667    1.511430    2.031467
C     -0.467703    1.723791   -1.031159
C      4.201542   -0.234534    0.173737
C      3.224632    0.558316    0.568788
C      2.502748   -0.549328   -1.388371
C      3.804311   -1.131950   -0.895217
C      2.041799    0.263252   -0.217660
C     -1.876000   -0.594690    0.211981
O      4.385023   -2.159436   -1.330807
O      0.983355   -0.281787    0.460861
Si    -0.443114    0.596628    0.459312
H     -2.687783    0.076752   -1.700254
H     -1.226212   -1.051197   -1.817824
H     -2.824489   -1.661426   -1.350018
H     -3.052240    1.126440    0.648862
H     -4.038773   -0.308835    0.297886
H     -3.168079   -0.135013    1.905951
H     -1.287173   -2.672074    0.051135
H     -2.492602   -2.291106    1.383969
H     -0.794019   -1.804697    1.574132
H      0.061648    2.088904    2.411640
H     -1.034707    0.751939    2.812826
H     -1.693162    2.118043    1.887173
H     -0.039866    1.129876   -1.884244
H     -1.523883    1.947261   -1.247081
H      0.168523    2.601723   -0.918189
H      5.230813   -0.267720    0.566120
H      3.400669    1.278677    1.367311
H      2.811391    0.119088   -2.244302
H      1.802030   -1.324088   -1.702199
H      1.672350    1.243642   -0.645222
