41

C      0.081881   -2.689277    1.660706
C     -1.816086    2.992535    0.454420
C      2.741566    2.300368    1.136420
C     -1.657206    1.907107    1.262635
C     -1.690521    2.848510   -0.918955
C      2.312661    2.377529   -0.173553
C      2.746882    1.089429    1.756749
C     -1.374323    0.688800    0.688147
C     -1.406229    1.609144   -1.454218
C      1.899159    1.238135   -0.830189
C      2.328462   -0.028195    1.074380
C     -1.237026    0.476308   -0.658875
C      1.891561   -0.006624   -0.230930
C     -0.949706   -0.770632   -1.314396
C      0.083740   -1.687514   -0.786247
C      1.477685   -1.241044   -0.864368
C     -2.190500   -1.670699   -1.131358
C     -1.884675   -2.226557    0.213235
N     -0.453343   -2.210316    0.409804
O      2.345871   -2.305881   -0.567284
O     -3.331430   -0.882074   -1.122197
O     -2.787969   -2.623716    0.990240
H     -0.532494   -3.482121    2.125732
H      0.109640   -1.829656    2.361515
H      1.114251   -3.064606    1.577910
H     -2.041225    3.976788    0.870425
H      3.069874    3.225453    1.647798
H     -1.749444    1.983994    2.353019
H     -1.825989    3.741207   -1.515500
H      2.323365    3.358386   -0.631739
H      3.081553    1.024241    2.781370
H     -1.254766   -0.140921    1.342116
H     -1.320312    1.560985   -2.535953
H      1.573260    1.348561   -1.851490
H      2.365148   -0.953014    1.630743
H     -0.792109   -0.604242   -2.415853
H      0.041097   -2.578821   -1.507374
H      1.674469   -1.099508   -1.981931
H     -2.194184   -2.447207   -1.915024
H      3.191574   -1.946704   -0.160686
H     -3.964162   -1.258151   -1.769243
