34

C     -1.389266    1.828075    0.573606
C     -2.063844    0.786892   -1.552255
C     -3.101142    0.037333    0.518570
C     -1.042060   -2.320160   -0.649864
C     -0.412263   -1.082994    2.037345
C      3.570088    1.461372   -0.274263
C      2.382246    1.425392    0.275472
C      3.233832   -0.769019    0.384639
C      4.089604    0.112139   -0.449273
C      1.952551    0.019948    0.541082
C     -1.807972    0.535649   -0.092491
O      5.060141   -0.260456   -1.153836
O      1.013325   -0.304643   -0.422578
Si    -0.494671   -0.745107    0.202274
H     -1.054380    1.572005    1.602838
H     -0.553183    2.291545    0.013783
H     -2.256622    2.532533    0.601168
H     -3.050415    1.306752   -1.639491
H     -1.313683    1.462735   -2.005460
H     -2.155319   -0.149958   -2.133333
H     -3.935620    0.624192    0.071988
H     -3.070269    0.118992    1.618545
H     -3.232224   -1.018236    0.173035
H     -1.930694   -2.744296   -0.144540
H     -0.213309   -3.051593   -0.562197
H     -1.228026   -2.123283   -1.713347
H     -1.300437   -1.710709    2.333341
H     -0.463162   -0.167719    2.639800
H      0.495308   -1.643616    2.324517
H      4.105057    2.373386   -0.564793
H      1.796397    2.289394    0.504338
H      3.066556   -1.752104   -0.054546
H      3.758901   -0.866880    1.374840
H      1.544554   -0.067560    1.564598
