21

C     -2.210026    1.033951   -0.756658
C     -1.708987   -0.795689    0.775403
C      2.845525    0.048556   -0.486804
C      2.069636   -0.969268   -0.802929
C      2.102132    0.952417    0.376640
C      0.736877   -0.838757   -0.179455
C      0.865161    0.280742    0.835764
C     -1.092865    0.272797   -0.090968
O      2.501892    2.132302    0.660896
O     -0.217740   -0.285521   -1.043529
O     -0.258712    1.096929    0.658681
H     -3.200487    0.822850   -0.288178
H     -2.290703    0.650454   -1.809006
H     -2.037020    2.113607   -0.767062
H     -1.019407   -1.184406    1.549175
H     -2.539230   -0.295739    1.343912
H     -2.168828   -1.564814    0.148109
H      3.888107    0.214506   -0.807899
H      2.362139   -1.790891   -1.432071
H      0.430712   -1.788889    0.247931
H      0.941823   -0.105137    1.868048
