33

C      3.499499   -1.027411    1.135139
C      3.553134   -0.922758   -0.393621
C      3.394405    0.523606   -0.750580
C      2.102909    1.053716   -0.245655
C      0.956909    0.288167   -0.858823
C     -0.309409    0.935087   -0.269296
C     -1.541293    0.241128   -0.818952
C     -3.980405    0.240336   -0.741765
C     -3.894584   -1.114259   -0.028422
C     -2.743083    0.923381   -0.201422
C     -3.257159   -0.739823    1.255385
O     -3.151199   -1.501260    2.247117
O     -2.807895    0.568792    1.173047
H      4.022055   -0.113243    1.540961
H      2.428602   -1.031061    1.418367
H      4.043026   -1.914865    1.468569
H      4.568921   -1.302352   -0.698804
H      2.798391   -1.583993   -0.810111
H      3.436945    0.628192   -1.868314
H      4.259456    1.085855   -0.311229
H      2.056148    2.140007   -0.523004
H      2.104663    0.971803    0.864238
H      0.983104   -0.775400   -0.623781
H      0.887162    0.446115   -1.948682
H     -0.287857    1.989384   -0.589975
H     -0.303201    0.908950    0.826117
H     -1.517514   -0.824703   -0.514219
H     -1.525295    0.374480   -1.915825
H     -4.901330    0.780989   -0.400004
H     -3.953713    0.120870   -1.839169
H     -3.296492   -1.818799   -0.606830
H     -4.891544   -1.554503    0.127322
H     -2.733356    2.003574   -0.344663
