20

C     -3.540080   -0.293210   -0.718912
C      1.951270    1.198446    0.722472
C      0.625989    1.270723    0.668892
C      1.194503   -0.756705   -0.285608
C     -2.347912   -0.456665    0.153224
C      2.376259   -0.239323    0.546990
C      0.070239   -0.096808    0.456045
O     -2.388128   -0.996366    1.280068
O      3.554567   -0.259922   -0.146549
O     -1.120791   -0.001241   -0.271696
H     -3.698667   -1.217715   -1.283564
H     -4.436031   -0.054660   -0.074302
H     -3.431356    0.582772   -1.394260
H      2.612473    2.029362    0.867304
H      0.082444    2.198851    0.769288
H      1.347287   -0.334581   -1.301164
H      1.167429   -1.853900   -0.264437
H      2.386829   -0.725103    1.520575
H     -0.034661   -0.580127    1.434897
H      3.628337    0.586174   -0.681924
