67

C     -5.538963   -0.121255    1.812782
C     -5.827513   -1.375470    1.052960
C      5.218351   -1.558391    0.289840
C      5.232982    0.799586   -0.267740
C     -1.251428    1.353636    0.310768
C     -0.956234   -0.847752   -0.550741
C      6.553343   -1.422117    0.997167
C      6.534361    1.048852    0.451735
C      0.031452    1.909006   -0.200534
C      0.395950   -0.372115   -1.043339
C      3.096945   -0.434867   -0.031335
C     -5.687221   -2.680004   -0.855355
C     -6.204235    2.037664    1.017471
C     -5.131921    3.249922   -0.702232
C     -4.115836   -2.549863   -2.631575
C      4.475359   -0.240007    0.560394
C     -1.897161    0.377660   -0.673065
C     -5.282660    1.043479    0.884949
C     -5.077941   -1.600658   -0.190786
C     -5.213301   -3.143879   -2.052798
C     -6.142154    3.160884    0.222715
C     -4.165073    2.239805   -0.863490
C      2.234646    0.742692    0.144046
C     -4.248452    1.151573   -0.070117
C     -3.240912    0.111463   -0.247408
C     -3.982413   -1.040922   -0.813264
C      8.574783   -0.315481    0.091479
Br    -6.025657   -4.609299   -2.973498
Br    -2.883849    2.533484   -2.253200
Cl    -7.338216    4.444088    0.401116
N      9.466135    0.336620    0.737438
N     -3.552160   -1.522255   -1.979076
N      0.927930    0.751352   -0.354622
N      7.223992   -0.240637    0.514877
O      2.677091    1.746977    0.746495
O      8.900110   -1.089718   -1.008014
H     -6.394183    0.175511    2.452048
H     -4.652478   -0.191098    2.475434
H     -5.751752   -2.222623    1.769477
H     -6.922024   -1.339549    0.774604
H      5.322020   -1.630437   -0.801500
H      4.607513   -2.378732    0.667952
H      4.648663    1.691753   -0.477443
H      5.414919    0.292769   -1.256623
H     -1.939458    2.167526    0.582050
H     -1.006149    0.759708    1.226470
H     -0.876204   -1.074789    0.509378
H     -1.219932   -1.657642   -1.224336
H      7.149575   -2.309846    0.746051
H      6.325785   -1.350923    2.082586
H      7.161734    1.784933   -0.047757
H      6.261119    1.347466    1.499627
H      0.481858    2.519482    0.601465
H     -0.017776    2.518725   -1.097756
H      1.058606   -1.259968   -1.041591
H      0.282922   -0.074842   -2.127319
H      3.256323   -0.694133   -1.103204
H      2.622851   -1.357721    0.408384
H     -6.566530   -3.168550   -0.408261
H     -6.995577    1.940799    1.758865
H     -5.065105    4.137347   -1.345773
H     -3.730370   -2.907659   -3.579448
H      4.463428    0.012470    1.627304
H     -1.654358    0.747834   -1.660331
H     -3.065704   -0.285593    0.851527
H      9.215436    0.917741    1.564269
H      9.804717   -0.984013   -1.490942
