47

C      5.760938   -0.256398    2.141728
C     -2.362619    3.040974    0.528518
C     -3.197055    1.178686    1.924918
C     -4.489923    0.077431   -0.559930
C     -4.005649    1.502810   -0.438371
C      4.523075   -0.850482    0.014014
C     -0.860276   -1.149219   -0.908897
C      2.274771   -0.875354   -1.829684
C      5.081281   -1.174558    1.158370
C      0.312440   -0.284721   -0.465047
C     -2.058412   -0.465030   -0.356158
C      1.232260   -0.127080   -1.612903
C     -3.463585   -0.921160   -0.113032
C      3.976149   -2.038806   -0.636937
C     -1.734164    0.772740   -0.046936
C     -0.316014    1.064791   -0.346274
C      4.922578   -2.607407    1.309345
C      0.706175    1.006041   -2.387191
C     -2.852827    1.610747    0.534810
O     -3.660612   -2.068971   -0.916695
O      5.359006   -3.241958    2.323096
O      1.133103    1.288164   -3.537736
O      2.603818   -1.909202   -0.965121
O      4.250854   -3.096693    0.206921
O     -0.279390    1.648478   -1.646319
H      5.861062   -0.743910    3.115085
H      5.192134    0.688151    2.255795
H      6.757788    0.012209    1.740357
H     -1.417277    3.051956    1.119306
H     -2.066577    3.322736   -0.508024
H     -3.118418    3.736757    0.936154
H     -2.494571    0.386985    2.247440
H     -3.074271    2.005544    2.669326
H     -4.231881    0.760510    2.017230
H     -5.390092   -0.047963    0.096039
H     -4.841318   -0.132516   -1.589438
H     -4.846321    2.173916   -0.181377
H     -3.611782    1.821048   -1.428082
H      4.470675    0.151162   -0.396705
H     -0.950882   -1.207080   -2.002653
H     -0.821576   -2.154400   -0.422205
H      2.902941   -0.702960   -2.689310
H      0.793017   -0.654868    0.439893
H     -3.601219   -1.276809    0.924746
H      4.588928   -2.199141   -1.575127
H      0.160268    1.711874    0.411954
H     -3.116550   -2.827026   -0.554892
