26

C      2.001780   -0.400101    0.709089
C     -2.409593    0.365144    1.273361
C      1.722775    0.918202   -1.213581
C     -0.835651   -1.414292    0.363959
C     -1.066381   -0.095036   -1.509221
C     -2.223008   -0.882859    0.475373
C      1.195019    0.019227   -0.328994
C      3.296998    0.070995    0.850649
C     -2.366934   -0.016809   -0.733905
C      3.768397    0.978493   -0.078762
Cl     4.291758   -0.491270    2.190923
Cl     5.391376    1.583551    0.078991
N     -2.369969    1.194805    0.067892
N      2.989241    1.401578   -1.105460
N     -0.126649   -0.465618   -0.468300
H      1.637790   -1.106039    1.433681
H     -1.639330    0.616214    2.007336
H     -3.434703    0.456685    1.711431
H      1.150420    1.291377   -2.051271
H     -0.882015   -2.371155   -0.203664
H     -0.346981   -1.578797    1.343451
H     -1.112432   -0.866785   -2.307012
H     -0.845058    0.915036   -1.897870
H     -3.017886   -1.641575    0.641686
H     -3.277543   -0.236135   -1.286731
H     -1.491421    1.755162    0.036949
