25

C      4.113958    0.192028   -0.213889
C      2.632701    0.508328   -0.244451
C      1.888639   -0.739644    0.090469
C     -2.387660   -0.036816   -1.097149
C     -3.753449   -0.019246   -0.441481
C     -1.566445    0.810215   -0.182960
C      0.417109   -0.564051    0.094725
C     -2.214601    0.612406    1.135752
N     -0.180877    0.520186   -0.155785
O     -0.354960   -1.683297    0.398671
O     -1.816628    0.924633    2.282714
O     -3.441597   -0.025908    0.925871
H      4.649329    0.683966   -1.060972
H      4.591314    0.583763    0.711096
H      4.317808   -0.892591   -0.287309
H      2.449066    1.274224    0.536632
H      2.399391    0.897471   -1.263902
H      2.121935   -1.500154   -0.679846
H      2.281222   -1.129873    1.046440
H     -2.480809    0.468058   -2.081695
H     -2.080631   -1.084227   -1.175770
H     -4.330152   -0.931698   -0.719992
H     -4.335750    0.875413   -0.740568
H     -1.718613    1.874751   -0.497049
H     -1.200301   -1.617941    0.985631
