47

C      6.901354   -0.710656   -0.105889
C     -3.343616   -1.485987   -1.264545
C     -3.739761   -1.644924    1.139446
C     -3.981841    1.677130   -0.676872
C     -4.439115    0.379114   -0.114097
C      4.886296    0.607479   -0.903563
C     -0.297667    1.406708    0.061951
C      1.998535   -0.408483   -0.907392
C      5.612871    0.054616    0.048746
C      0.266114    0.205128    0.746061
C     -1.668875    1.013511   -0.342527
C      0.956126   -0.735230   -0.160124
C     -2.629641    1.683500   -1.306993
C      3.725585    1.242913   -0.302184
C     -2.032357   -0.098870    0.280949
C     -0.950859   -0.585471    1.178170
C      4.962616    0.300789    1.326635
C      0.292331   -2.054125   -0.079388
C     -3.401939   -0.683043    0.007783
O     -2.557295    1.123627   -2.555959
O      5.403571   -0.098600    2.451511
O      0.531235   -3.062844   -0.784061
O      2.495533    0.863035   -0.866663
O      3.818832    1.027427    1.058741
O     -0.645967   -1.942830    0.934502
H      6.735698   -1.785029   -0.179485
H      7.444546   -0.365270   -1.019388
H      7.569925   -0.456071    0.751032
H     -2.337514   -1.482398   -1.730874
H     -3.598729   -2.553325   -1.092164
H     -4.082069   -1.083368   -1.984825
H     -3.251771   -2.599138    0.892199
H     -3.292050   -1.186741    2.067257
H     -4.821817   -1.770341    1.207134
H     -4.036299    2.456125    0.127620
H     -4.720281    2.008269   -1.442000
H     -4.836054    0.558192    0.917867
H     -5.326927   -0.008146   -0.694939
H      5.195577    0.542127   -1.954340
H     -0.342701    2.280498    0.740154
H      0.259942    1.628214   -0.874387
H      2.437348   -1.171631   -1.542428
H      0.874196    0.463481    1.626320
H     -2.324644    2.763589   -1.389173
H      3.802771    2.351498   -0.498307
H     -1.212396   -0.416660    2.243255
H     -2.298815    1.752215   -3.274619
