45

C     -3.252543   -2.133595    0.926919
C     -1.407891    2.780727    0.828136
C     -2.628989   -2.377777   -0.454098
C     -1.158350    2.347004   -0.596048
C      4.686697    0.619448    0.129564
C      3.962039   -0.148876   -0.791290
C      4.083500    1.088461    1.271519
C      1.813266   -1.272247   -1.488225
C      0.487354   -0.551105   -1.628051
C     -2.464998   -1.056248   -1.115056
C     -1.823448    1.118050   -0.990173
C      0.592318   -0.286714    0.837770
C      2.641562   -0.448530   -0.574461
C     -0.246080   -0.609744   -0.349263
C      2.020898    0.015724    0.568532
C      2.743290    0.782286    1.486164
N     -1.594684   -0.137399   -0.351282
O      2.212847    1.291139    2.655389
Br     0.765088    0.000000    0.000000
H     -3.397029   -3.132500    1.426860
H     -2.569201   -1.508911    1.514332
H     -4.245774   -1.620448    0.812592
H     -0.484043    2.773566    1.442157
H     -1.880761    3.788890    0.861182
H     -2.169375    2.076304    1.223463
H     -3.402572   -2.973843   -1.048589
H     -1.778109   -3.029199   -0.375970
H     -0.092437    2.468350   -0.919304
H     -1.649094    3.180890   -1.218219
H      5.734084    0.826959   -0.093866
H      4.421223   -0.527574   -1.708898
H      4.643347    1.676532    1.980810
H      1.619414   -2.246043   -0.960122
H      2.292380   -1.447082   -2.468392
H     -0.030389   -1.060403   -2.470857
H      0.796769    0.494978   -1.932884
H     -3.456576   -0.552501   -1.194493
H     -2.019666   -1.104768   -2.124058
H     -1.668143    0.930252   -2.071233
H     -2.942690    1.299002   -0.897482
H      0.654259   -1.177079    1.567389
H      0.125424    0.490949    1.491680
H     -0.435484   -1.748883   -0.223403
H      1.267656    1.101961    2.907533
H     -0.765088    0.000000    0.000000
