22

C      0.234094    1.314764   -0.209840
C      0.942530   -0.938837   -0.773225
C     -1.042190    0.845425    0.397083
C     -0.114494   -1.480671    0.161066
C     -1.321731   -0.607650    0.250136
C      1.340233   -0.221523    1.380247
C      1.350614    0.319976    0.000589
O     -2.091314    1.547939   -0.240177
O     -2.221411   -0.838348   -0.806177
O      1.928952    0.272507    2.361147
O      2.565928    0.804651   -0.399556
O      0.570524   -1.371754    1.420132
H      0.529749    2.265329    0.263908
H      0.096557    1.491533   -1.275717
H      0.580605   -0.716562   -1.769507
H      1.803580   -1.622024   -0.719827
H     -1.069818    1.194732    1.459400
H     -0.393287   -2.498271   -0.081071
H     -1.887145   -0.930719    1.174088
H     -1.998035    2.501062    0.010827
H     -2.824895   -1.594378   -0.582308
H      3.020954    0.262821   -1.082137
