41

C      0.226003   -3.945314    1.094137
C     -2.530804    2.408752   -1.832845
C      2.578121    2.408727   -1.839014
C     -1.631240    1.485897   -2.310665
C     -3.021364    2.267540   -0.554997
C      2.676033    1.100918   -2.252007
C      2.045691    2.646150   -0.591934
C     -1.235488    0.431137   -1.496440
C     -2.606688    1.194422    0.247614
C      2.258228    0.061122   -1.451753
C      1.629096    1.593141    0.203854
C     -1.705928    0.265120   -0.221373
C      1.718391    0.281131   -0.190570
C     -1.281669   -0.833953    0.601082
C      0.015553   -1.497788    0.315510
C      1.259171   -0.779195    0.717829
C     -1.277372   -0.630798    2.086358
C     -0.545026   -1.886136    2.493220
N     -0.088233   -2.574253    1.336294
O      2.276492   -1.787897    0.670262
O     -0.706367    0.492468    2.567770
O     -0.336190   -2.315137    3.660961
H     -0.066059   -4.257782    0.048765
H      1.336269   -4.138202    1.129378
H     -0.285431   -4.640500    1.764888
H     -2.832829    3.230672   -2.480708
H      2.913936    3.238370   -2.483283
H     -1.261320    1.618373   -3.315599
H     -3.726726    3.009445   -0.209586
H      3.090362    0.907215   -3.223603
H      1.965328    3.679354   -0.258801
H     -0.541048   -0.256154   -1.927017
H     -3.058921    1.177623    1.229835
H      2.335237   -0.981928   -1.778665
H      1.222672    1.856715    1.177970
H     -2.059061   -1.662112    0.449681
H      0.057553   -1.916460   -0.690038
H      1.237955   -0.491821    1.767073
H     -2.309412   -0.723618    2.490228
H      3.148807   -1.376054    0.907780
H     -0.883721    1.340810    2.148408
