22

C     -0.718734    0.829589    0.824753
C     -0.492241   -0.306526   -1.390394
C      0.738274    1.024318    0.592323
C      0.703548   -1.064223   -0.804065
C      1.372725   -0.297746    0.287101
C     -1.110995   -1.555673    0.441872
C     -1.336894   -0.197152   -0.123113
O      1.044687    1.969198   -0.368862
O      2.741862   -0.082473    0.007224
O     -1.817456   -2.062405    1.340066
O     -2.654738    0.074712   -0.383593
O     -0.015786   -2.143361   -0.180925
H     -0.831245    0.377326    1.854147
H     -1.312732    1.760988    0.852370
H     -0.226114    0.646416   -1.817771
H     -1.009488   -1.001724   -2.071319
H      1.207943    1.388940    1.552450
H      1.375577   -1.426858   -1.581795
H      1.382042   -0.864077    1.265626
H      0.516560    2.779800   -0.282216
H      3.226705   -0.910194    0.248801
H     -2.783500    1.061122   -0.262682
