41

C      0.312928    3.652742   -1.676470
C     -2.377086   -3.172392    0.061150
C      3.045300   -2.736296    0.232904
C     -1.381514   -2.767136   -0.798159
C     -3.024664   -2.253642    0.825878
C      3.323454   -1.831086   -0.764657
C      2.150895   -2.357196    1.212126
C     -1.054532   -1.425300   -0.869791
C     -2.680939   -0.905278    0.739531
C      2.730104   -0.586940   -0.787434
C      1.553781   -1.114443    1.195494
C     -1.694155   -0.481110   -0.107851
C      1.825652   -0.202238    0.201880
C     -1.346617    0.904305   -0.207477
C     -0.000483    1.323936   -0.608431
C      1.172775    1.126450    0.239653
C     -1.721811    1.810398    0.933863
C     -1.007367    3.055414    0.492939
N     -0.212528    2.793297   -0.656840
O      1.100771    1.609909    1.544322
O     -1.418894    1.391595    2.182475
O     -1.102486    4.161743    1.060410
H      1.296865    4.034974   -1.372826
H     -0.392849    4.468723   -1.947393
H      0.433911    3.046784   -2.610286
H     -2.642453   -4.240616    0.123067
H      3.517146   -3.731170    0.254743
H     -0.888948   -3.515748   -1.388670
H     -3.801759   -2.582033    1.494501
H      4.017552   -2.112679   -1.533134
H      1.940026   -3.084087    1.995917
H     -0.252563   -1.177157   -1.575621
H     -3.266549   -0.237318    1.392824
H      2.958590    0.115805   -1.579221
H      0.850649   -0.822654    1.969530
H     -2.020455    1.303120   -1.062371
H      0.223365    0.946412   -1.626098
H      1.978248    1.814594   -0.211541
H     -2.828984    2.033920    0.905922
H      1.910638    1.280999    2.011535
H     -1.225015    0.461398    2.348528
