30

C      4.456768   -0.211678    0.116322
C     -2.289918   -0.101751    1.172107
C      2.998383   -0.608713   -0.186677
C      2.173280    0.006137    0.876936
C      0.698424   -0.370654    0.689696
C      0.230968    0.122153   -0.609885
C     -1.150440   -0.120090   -1.058766
C     -3.606878    0.239663   -0.843234
C     -2.229016    0.440142   -0.210823
O     -4.501763    0.954709   -0.029726
H      4.801764   -0.857224    0.933578
H      4.403068    0.846580    0.451420
H      5.006424   -0.317159   -0.817967
H     -3.375515   -0.295878    1.459594
H     -1.731266   -1.052942    1.229029
H     -1.960570    0.626979    1.914799
H      2.788174   -0.147668   -1.183922
H      2.904020   -1.703285   -0.229675
H      2.450972   -0.325440    1.890916
H      2.196280    1.115826    0.831369
H      0.222378    0.076390    1.594158
H      0.584774   -1.473212    0.777080
H      0.528867    1.209606   -0.734126
H      0.909295   -0.374619   -1.395064
H     -1.280980    0.227761   -2.141611
H     -1.295039   -1.247241   -1.089724
H     -3.921075   -0.811919   -0.826998
H     -3.666386    0.684239   -1.846762
H     -2.097713    1.558115   -0.203874
H     -4.247283    1.911174   -0.016447
