32

C     -2.489534   -0.655690   -1.752097
C      3.539695    1.594314   -0.393410
C      2.338380    1.012039   -0.807030
C      5.932491    0.068190    1.779042
C      4.913899   -0.861262    1.647137
C     -0.938417   -0.527453    0.204473
C     -3.360418   -1.099887    0.555119
C     -2.182986   -1.174254   -0.365577
C      4.344278    0.852178    0.452058
C      1.966228   -0.245373   -0.394376
N     -4.509440    1.286737   -0.622086
N      5.548510    1.117453    1.026545
N      2.810398   -0.894385    0.427600
N      3.948435   -0.364520    0.830348
O     -5.111454    0.450722    1.786889
O     -2.910900    1.380856    1.448266
S      0.425847   -0.948519   -0.946644
S     -3.981184    0.522259    0.799342
H     -2.332368    0.439640   -1.822951
H     -3.481420   -0.994770   -2.048236
H     -1.751680   -1.160999   -2.442389
H      3.836574    2.583738   -0.715747
H      1.716225    1.585940   -1.460808
H      6.849249   -0.010484    2.357296
H      4.943685   -1.822111    2.147095
H     -0.653028   -0.982857    1.174286
H     -1.023992    0.548432    0.348587
H     -3.038178   -1.495238    1.539895
H     -4.135818   -1.777347    0.178047
H     -1.936748   -2.259032   -0.485619
H     -3.858813    2.064479   -0.937644
H     -5.417514    1.767203   -0.438538
