54

C      1.348047   -4.001202   -0.897157
C      4.160371    2.887451    0.519454
C     -0.336646    3.979466   -1.572022
C     -4.789249    1.692833   -0.592479
C     -4.086564    0.823918    2.206888
C     -4.513587   -1.314883    0.046695
C      1.178886   -2.515586   -1.018401
C     -1.250172   -0.558211    0.242936
C      1.888334   -1.825153    1.278746
C      2.060934    0.653580   -0.800349
C      3.632765    2.142097   -1.582642
C      0.628215    0.575900   -0.522427
C      0.110012   -0.581770   -0.006032
C     -2.061926    0.526068    0.004358
C      2.153660   -3.198115    1.746958
C     -0.221155    1.674838   -0.759715
C      0.869784   -1.774822    0.257602
N     -1.535282    1.636788   -0.497430
O      3.170190   -3.884048    1.390704
O      1.305953   -3.869612    2.631351
O     -0.122170   -2.710915    0.835949
O      4.453262    1.977767   -0.470639
O      0.393169    2.809405   -1.286683
O      2.288684    1.979901   -1.303687
Si    -3.876929    0.397446    0.395337
H      2.366577   -4.371724   -1.078506
H      0.731217   -4.523045   -1.720098
H      0.905459   -4.412957    0.023230
H      4.861915    2.683361    1.378458
H      3.134723    2.845191    0.920119
H      4.357029    3.929025    0.173147
H     -0.824444    3.916405   -2.581369
H      0.378455    4.828592   -1.598904
H     -1.100629    4.221175   -0.809986
H     -5.016068    1.362325   -1.607052
H     -4.121857    2.601333   -0.596902
H     -5.711977    1.948117   -0.011643
H     -5.105668    1.114177    2.457504
H     -3.335276    1.633443    2.431581
H     -3.722228   -0.057091    2.797556
H     -4.902720   -1.750637    0.992988
H     -5.392878   -1.244188   -0.648800
H     -3.752140   -1.991292   -0.371789
H      2.132924   -2.159394   -1.495748
H      0.354973   -2.338453   -1.774418
H     -1.762215   -1.448493    0.660870
H      2.908860   -1.467845    0.990551
H      1.551506   -1.290681    2.223075
H      2.720645    0.662111    0.067861
H      2.412388    0.046546   -1.661071
H      3.753974    3.188322   -1.931571
H      3.966835    1.497581   -2.412191
H      1.632187   -4.641386    3.210623
H     -0.270154   -2.303655    1.725167
