58

C      0.222970    2.107614    0.902438
C     -0.242569   -0.871439    1.105041
C      3.821326   -1.762907    3.398566
C      4.583369    0.494178   -4.089501
C     -4.516241   -3.255208   -2.193264
C     -4.233378    2.856997    2.541648
C      3.599374   -2.350795    2.160416
C      3.601112   -0.429990    3.561855
C      5.147487   -0.057416   -2.952759
C      3.362470    1.119267   -4.017532
C     -3.428049   -3.501830   -1.363450
C     -4.814623   -1.937324   -2.505362
C     -3.648454    3.452516    1.447529
C     -4.154279    1.505692    2.682181
C      3.161506   -1.614265    1.095332
C      3.156718    0.310268    2.475668
C      4.450330    0.037654   -1.745528
C      2.695586    1.196084   -2.799723
C     -2.686619   -2.432541   -0.881725
C     -4.071480   -0.893712   -2.020671
C     -3.001290    2.674063    0.526741
C     -3.496585    0.735792    1.741895
C      0.589389    1.131225   -0.183771
C     -0.297050   -0.100635   -0.172461
C      2.927606   -0.252792    1.229457
C      3.233230    0.655799   -1.651327
C     -2.979405   -1.121838   -1.189212
C     -2.901673    1.304283    0.636778
P      2.359037    0.768787   -0.109991
P     -2.047862    0.302962   -0.590846
H      1.161546    2.425983    1.442705
H     -0.138924    3.039731    0.427974
H     -0.513573    1.685611    1.617921
H     -1.230815   -1.136230    1.531755
H      0.278752   -1.867842    0.990577
H      0.321561   -0.353329    1.908166
H      4.162577   -2.337649    4.228310
H      5.144701    0.407733   -5.016921
H     -5.110531   -4.082748   -2.581636
H     -4.756803    3.458080    3.292553
H      3.773048   -3.425604    2.014814
H      3.752550    0.104911    4.503734
H      6.113767   -0.553793   -3.002574
H      2.944497    1.543231   -4.927839
H     -3.166404   -4.525722   -1.098663
H     -5.668886   -1.759661   -3.155449
H     -3.716284    4.533496    1.342541
H     -4.607912    1.001916    3.538719
H      2.982104   -2.065936    0.112011
H      2.979154    1.374289    2.598684
H      4.909061   -0.397416   -0.880761
H      1.750765    1.689484   -2.787254
H     -1.843271   -2.637003   -0.237681
H     -4.374418    0.113291   -2.315262
H     -2.553266    3.194806   -0.324332
H     -3.449684   -0.338736    1.875750
H      0.379326    1.626992   -1.160994
H      0.085409   -0.788378   -0.975269
