33

C     -3.141266   -0.085158   -1.165797
C     -2.661436    1.721098    0.225878
C     -3.099986   -0.427400    1.138769
C      6.046246   -0.238288   -0.567319
C     -0.282643    0.047327    1.195890
C      2.167937   -0.009063    1.894390
C      1.178873   -0.012907    0.933996
C     -1.072560    0.024063   -0.082804
C     -0.776593   -1.230080   -0.819673
C      3.154377   -0.119348   -0.057352
N      3.378199   -0.075061    1.267096
N      1.824334   -0.081124   -0.242576
N     -2.456826    0.289001    0.073164
O     -0.324918   -2.208470   -0.174571
O     -0.985393   -1.346086   -2.192831
S      4.411522   -0.212390   -1.333910
H     -3.152717   -1.168987   -1.329602
H     -2.710843    0.454380   -2.043992
H     -4.222092    0.235214   -1.111397
H     -3.713126    1.940396   -0.055282
H     -2.407714    2.064702    1.251815
H     -1.981606    2.201631   -0.528003
H     -2.652115   -0.262783    2.124877
H     -4.152663   -0.028015    1.202309
H     -3.214363   -1.501941    0.875058
H      6.647010   -1.011082   -1.122631
H      6.483008    0.767148   -0.673780
H      6.009927   -0.562313    0.495074
H     -0.528665   -0.865141    1.805221
H     -0.472350    0.912882    1.823999
H      1.965309    0.039154    2.946934
H     -0.644567    0.851712   -0.723037
H      1.387703   -0.103070   -1.182872
