40

C     -2.504554   -2.453357   -0.572257
C     -3.515396   -1.770307    1.474100
C      4.650185   -1.129431    0.210018
C      3.681954   -1.597322    1.044382
C      4.287806   -0.317171   -0.837385
C     -0.633459    4.007019    0.001793
C      0.714152    3.667015    0.104773
C      2.342139   -1.257566    0.839626
C      2.954873    0.016255   -1.035172
C     -1.534065    2.988392   -0.233278
C      1.159384    2.359322   -0.020635
C     -2.023374    0.566647   -0.606487
C     -0.300904   -0.784907    0.607853
C      1.953482   -0.446230   -0.201755
C     -1.082639    1.715760   -0.353214
C     -1.761888   -0.405781    0.527107
C      0.264623    1.371271   -0.251381
C      0.559316   -0.073054   -0.418271
N     -2.562945   -1.544462    0.477547
H     -2.935659   -3.431721   -0.221661
H     -3.134396   -2.130761   -1.427272
H     -1.482321   -2.703276   -0.933775
H     -4.207655   -0.876255    1.518474
H     -3.032522   -1.767153    2.494760
H     -4.092398   -2.702050    1.314745
H      5.688612   -1.414701    0.400747
H      3.969815   -2.248891    1.884734
H      5.077205    0.049798   -1.493500
H     -0.990936    5.013545    0.096639
H      1.430897    4.450234    0.288081
H      1.661473   -1.688011    1.556921
H      2.708396    0.652911   -1.857250
H     -2.587704    3.223958   -0.318629
H      2.200651    2.089617    0.057943
H     -3.060795    0.955559   -0.455177
H     -1.908018    0.131486   -1.597646
H      0.086610   -0.459894    1.605710
H     -0.181801   -1.870645    0.424163
H     -2.035536    0.186269    1.455766
H      0.177389   -0.372112   -1.418125
