35

C     -2.072637   -2.485139    0.549367
C      4.097704   -1.370374   -0.026884
C      4.294735   -0.028160    0.175683
C     -0.201763    3.441358    0.219027
C      2.819538   -1.829266   -0.212765
C     -1.470937    2.924932    0.024632
C      3.184467    0.827890    0.185806
C      0.907764    2.621351    0.212769
C     -2.918710    0.929032   -0.391509
C     -3.045891   -0.377768    0.312896
C      0.366449   -1.598434   -0.416036
C     -1.578787    1.576226   -0.172758
C      1.695392   -0.994441   -0.206859
C      1.896885    0.355030   -0.002921
C      0.749804    1.267960    0.009919
C     -0.783076   -0.690065   -0.411896
C     -0.496422    0.723597   -0.186230
N     -1.824886   -1.067628    0.557057
H     -1.600260   -3.025717   -0.272461
H     -3.175995   -2.713490    0.476311
H     -1.750838   -2.891326    1.531275
H      4.956480   -2.056723   -0.038024
H      5.279559    0.385625    0.327175
H     -0.130523    4.516923    0.374971
H      2.666786   -2.873495   -0.370314
H     -2.362404    3.558035    0.026119
H      3.313680    1.878971    0.341998
H      1.863645    3.086848    0.369830
H     -3.069370    0.863648   -1.489798
H     -3.683015    1.655990   -0.017593
H     -3.586805   -0.242738    1.276141
H     -3.697380   -1.036041   -0.321667
H      0.238418   -2.407340    0.359742
H      0.434289   -2.173080   -1.385436
H     -1.315896   -0.752188   -1.407567
