33

C     -2.543365   -0.038407   -1.563308
C     -3.589877   -0.174815    0.524210
C     -2.435527    1.781214   -0.116368
C      6.006277    0.525560   -0.041288
C     -0.018982    0.039135   -0.422411
C      1.583728   -0.491802    1.549990
C      1.255866   -0.275077    0.240999
C     -1.206410   -0.206971    0.424278
C     -1.327610   -1.632723    0.768442
C      3.417654   -0.747948    0.362066
N      2.892575   -0.775503    1.593489
N      2.417588   -0.440894   -0.472881
N     -2.425756    0.310915   -0.172062
O     -2.280082   -2.253961    0.164228
O     -0.588625   -2.377697    1.620700
S      5.133433   -1.061222   -0.094188
H     -2.167217   -1.028708   -1.822255
H     -2.097686    0.769081   -2.185293
H     -3.648328   -0.043249   -1.799004
H     -4.141683   -0.872218   -0.107798
H     -3.267066   -0.610325    1.499416
H     -4.290705    0.678205    0.744777
H     -1.687643    2.212482   -0.801795
H     -2.342291    2.141493    0.927036
H     -3.458023    2.069273   -0.497544
H      5.623029    1.168286   -0.865641
H      5.788535    1.037995    0.928536
H      7.093745    0.354535   -0.161768
H      0.012513    1.069251   -0.847892
H     -0.087214   -0.677894   -1.292849
H      0.933002   -0.427019    2.400192
H     -1.063377    0.323888    1.414900
H      2.509522   -0.344880   -1.491845
