28

C     -2.569969    0.657250   -0.501645
C     -1.447340    1.483742   -1.094763
C      0.713181    1.399857   -0.169718
C     -1.771736   -0.213732    0.472609
C      1.962119    0.562485   -0.092199
C     -0.618700   -0.579484   -0.475001
C      1.674671   -0.750792    0.556752
C      0.412303   -1.399757    0.154357
N     -0.241141    0.690262   -0.978317
O     -2.476555   -1.328013    0.859244
O      2.884996    1.244481    0.722519
O      2.773058   -1.593659    0.293472
O      0.723962   -2.480159   -0.702137
H     -2.945034   -0.011853   -1.296753
H     -3.332300    1.245520    0.004833
H     -1.647878    1.796271   -2.134937
H     -1.370754    2.404833   -0.447201
H      0.316883    1.655960    0.834150
H      0.974208    2.343107   -0.688655
H     -1.419083    0.424842    1.284441
H      2.399708    0.477762   -1.088938
H     -1.125229   -1.139799   -1.315627
H      1.696534   -0.573349    1.672168
H     -0.029857   -1.892753    1.070430
H     -2.632670   -1.337189    1.851049
H      3.101846    2.118090    0.352555
H      3.240443   -1.872358    1.096527
H      0.754334   -3.331564   -0.239214
