14

C      2.006054    0.024156   -0.077936
C     -1.540490   -0.010749   -0.338924
C      0.714165    0.285305    0.004380
C     -0.409257   -0.532849    0.526839
C      0.077580    1.522862   -0.433426
O     -0.207654   -1.883230    0.387343
O      0.687285    2.528792   -0.916760
O     -1.314049    1.403905   -0.227025
H      2.707182    0.724083   -0.485665
H      2.435811   -0.921066    0.264920
H     -1.321375   -0.272750   -1.389340
H     -2.524071   -0.301982    0.015771
H     -0.598287   -0.214286    1.573080
H     -0.712892   -2.352190    1.096740
