39

C     -3.723721   -1.205620    1.484235
C      2.742006    1.585557   -1.428243
C     -1.000730   -2.469424    0.665562
C      0.601763    2.128018    0.094216
C      0.093954    0.204161    1.904023
C     -3.320611   -0.329338    0.624837
C      2.573480   -0.243573    0.170956
C     -1.859374    0.770360   -0.910167
C      1.480731   -1.251565    0.519792
C     -0.539549    0.792863   -1.574738
C      1.902179    0.395324   -1.057013
C     -0.898877   -1.148783    0.024926
C     -2.063087   -0.271105   -0.038317
C      0.563605    0.734235   -0.513516
C      0.270821   -0.319108    0.523369
H     -4.740953   -1.137450    1.932540
H     -3.152842   -2.029195    1.836003
H      3.704214    1.176486   -1.843270
H      2.310089    2.216322   -2.212938
H      3.034928    2.149387   -0.517750
H     -0.099670   -3.071836    0.266389
H     -1.848684   -3.032356    0.262872
H     -0.935095   -2.513199    1.759779
H     -0.417251    2.491800    0.341577
H      0.954854    2.804921   -0.737059
H      1.327147    2.223109    0.902789
H     -0.623391   -0.405936    2.503176
H      1.069962    0.189486    2.450867
H     -0.275020    1.244480    1.953748
H     -4.054369    0.477828    0.376956
H      2.593409    0.522362    0.946381
H      3.523660   -0.709845   -0.073258
H     -2.634692    1.488782   -1.060192
H      1.427452   -1.918680   -0.374289
H      1.635408   -1.755666    1.467908
H     -0.476266    1.823939   -2.047634
H     -0.404148    0.094469   -2.393251
H      1.882090   -0.339341   -1.862706
H     -0.623422   -1.361872   -1.064284
