66

C      3.149512   -2.057989    0.101430
C      5.978719   -1.194088    0.024590
C      0.281873   -2.112937   -0.143195
C     -6.289259   -2.148506   -1.472793
C     -9.961701    0.499983    0.534921
C     -8.117694    3.352445    1.061852
C      8.029882    2.042883   -0.726434
C      8.243139    0.449755    0.975903
C      9.378316    2.161059   -0.828302
C      9.612857    0.546242    0.897425
C      3.781598    0.215900    0.146315
C      1.445126   -0.061269    0.176130
C      5.964746    1.159620    0.226248
C     -0.920371    0.146236    0.207137
C     -3.402620    0.545495    0.299644
C     -2.597641   -1.672861    0.043113
C      2.774451   -0.639966    0.115771
C      5.195291    0.036605    0.156577
C      0.271756   -0.677025    0.075907
C     -6.720195   -1.011577   -0.619633
C     -8.502762    0.225470    0.317825
C      7.395388    1.178074    0.183305
C     -2.122249   -0.303468    0.167457
C     10.193924    1.412606   -0.016304
C     -4.386421   -0.451367   -0.234152
C     -8.070386   -0.820131   -0.460576
C     -5.793657   -0.157071    0.000130
C     -7.539417    1.023903    0.895886
N     11.593410    1.548824   -0.145250
O     -8.937784   -1.560185   -0.996187
O     12.119861    2.409601   -1.057229
O     12.338590    0.882044    0.574303
O     -8.005365    2.088411    1.689259
O     -3.973025   -1.592205    0.485121
O     -6.263696    0.807967    0.719646
H      4.060709   -2.232064    0.783893
H      3.406170   -2.497046   -0.859816
H      2.428829   -2.705822    0.715359
H      6.213472   -1.723391    0.955329
H      5.602544   -1.908007   -0.749606
H      7.021758   -0.956675   -0.408472
H     -0.599631   -2.401789   -0.832865
H      1.096986   -2.375528   -0.878957
H      0.161909   -2.774249    0.706183
H     -7.139064   -2.431121   -2.152429
H     -5.462730   -1.880842   -2.154921
H     -5.971175   -3.017700   -0.840232
H    -10.281648    1.418452    0.032583
H    -10.536126   -0.343296    0.055327
H    -10.246638    0.461417    1.604857
H     -7.926663    4.158279    1.817511
H     -7.466024    3.444964    0.171562
H     -9.162620    3.526164    0.684157
H      7.378807    2.636413   -1.372228
H      7.848452   -0.232474    1.711029
H      9.818727    2.834682   -1.537143
H     10.230954   -0.046320    1.540014
H      3.417241    1.299566    0.157306
H      1.322020    1.037282    0.329131
H      5.433324    2.091462    0.323415
H     -0.840602    1.253722    0.353150
H     -3.530226    0.778685    1.361662
H     -3.351245    1.407819   -0.375286
H     -2.186511   -2.404338    0.762526
H     -2.741674   -2.049054   -0.992982
H     -4.143520   -0.641669   -1.305269
