72

C      6.204036   -0.240225    2.344533
C     -3.546284    2.187231    0.308226
C     -4.535185   -0.331060   -2.323958
C      2.124044    1.229602   -1.585708
C     -0.088508    2.377316    0.070617
C     -0.669779   -1.280029    0.951954
C     -4.049913    0.041207    1.279987
C     -5.000846   -0.030045    0.118522
C     -2.077772    1.187682    2.066182
C      1.399465   -0.977885   -0.979102
C     -0.612442    1.100482    2.041828
C     -0.053342   -0.620442   -1.261231
C      4.311831   -0.636185   -1.363080
C      2.072865    0.787352    1.920382
C     -2.878458   -1.085623   -0.667360
C      5.558379   -0.390942    1.018706
C      3.575892   -0.150956   -0.282496
C      3.501359    0.448838    2.113155
C      5.639390   -0.999505   -1.294021
C      1.474964    0.675848    0.753786
C     -2.166679    0.195076   -0.252109
C      4.209572   -0.025850    0.933782
C      6.264564   -0.872074   -0.082966
C     -4.992618   -2.218121   -0.897783
C     -2.860087    0.912400    0.837561
C     -4.348352   -0.875751   -0.923943
C      2.160650    0.218656   -0.452918
C      0.024174    1.016605    0.664655
C     -0.719952   -0.087537   -0.024773
O      4.050718    0.569487    3.229431
O      6.283105   -1.477432   -2.451825
O      7.587256   -1.209908    0.079290
O     -4.368440   -3.278166   -0.634367
O     -6.348133   -2.331490   -1.174361
H      5.790551   -0.940104    3.087382
H      6.280711    0.811388    2.687504
H      7.276139   -0.589052    2.213461
H     -4.503091    2.379870    0.876566
H     -2.939371    3.096362    0.538646
H     -3.683034    2.167798   -0.773787
H     -4.449408   -1.209519   -3.014294
H     -5.526121    0.130559   -2.471328
H     -3.691868    0.342042   -2.582184
H      1.099956    1.453771   -1.948857
H      2.750384    2.115986   -1.394860
H      2.585281    0.722254   -2.457705
H      0.913069    2.885358   -0.078603
H     -0.571730    3.125987    0.780511
H     -0.738786    2.448283   -0.825887
H      0.331444   -1.338419    1.425724
H     -0.789838   -2.224456    0.381672
H     -1.395566   -1.184252    1.767136
H     -4.570493    0.649402    2.072462
H     -3.762571   -0.943610    1.623597
H     -5.981278   -0.468706    0.422704
H     -5.237837    0.936475   -0.338147
H     -2.429821    0.593807    2.968286
H     -2.362855    2.238136    2.393161
H      1.405556   -1.786328   -0.248007
H      1.817072   -1.356563   -1.939875
H     -0.157908    2.025074    2.510302
H     -0.225380    0.244060    2.624350
H     -0.493251   -1.645843   -1.467299
H     -0.218467   -0.060037   -2.174132
H      3.850078   -0.759829   -2.329612
H      1.551690    1.136427    2.812817
H     -2.773664   -1.893913    0.055069
H     -2.485840   -1.447196   -1.644342
H     -2.209489    0.842059   -1.180019
H      7.243219   -1.748054   -2.432845
H      8.117537   -1.556883   -0.691460
H     -6.940494   -3.020888   -0.687096
