37

C      4.041862    0.744932   -0.798314
C      3.006697   -1.305939    0.004064
C     -2.613755   -1.908393    0.473116
C     -3.891834   -0.873400   -1.327766
C      1.602722    0.356379    1.835996
C      0.396955   -0.064078    1.071214
C      0.582363   -0.169898   -0.398972
C     -0.727609    0.333378   -0.944450
C     -1.580304    2.448165    0.036482
C      2.797030    0.185542   -0.140173
C     -2.631157   -0.729962   -0.470284
C     -1.389670    0.998616    0.227027
O     -2.237556    2.863308   -0.936953
O     -1.038813    3.346744    0.924151
O      2.658537    0.785233    1.084437
O     -0.645770    0.772003    1.345806
O      1.675624    0.488739   -0.902438
O     -1.553049   -0.696543   -1.316034
O     -2.655571    0.421703    0.267825
H      3.859636    1.736808   -1.249774
H      4.813411    0.891370   -0.009329
H      4.479018    0.021997   -1.516832
H      3.939134   -1.434852    0.599763
H      3.198281   -1.773383   -0.977310
H      2.189317   -1.823477    0.502577
H     -2.018570   -2.720270    0.007301
H     -2.235780   -1.609862    1.471338
H     -3.664403   -2.255375    0.645508
H     -4.082229    0.026382   -1.931894
H     -4.743634   -1.095440   -0.659443
H     -3.709926   -1.758660   -1.975199
H      1.988771   -0.459311    2.514924
H      1.344493    1.191953    2.551889
H      0.107103   -1.090241    1.445097
H      0.671953   -1.245262   -0.732846
H     -0.566190    1.091993   -1.750549
H     -1.367087    4.309101    1.030042
