57

C     -5.318326    4.619810   -0.296932
C     -2.996519   -5.312135    0.718213
C     -3.322858   -4.686114   -0.472267
C     -2.065955   -4.692873    1.555551
C     -2.733206   -3.481362   -0.806056
C     -1.480596   -3.482797    1.210289
C      4.944478    1.473039    1.138168
C      5.006081    0.140580   -0.807195
C     -3.240298    0.269761   -0.684486
C     -2.042100    1.937393    0.446238
C      6.315324    1.363383    1.254183
C      6.371761    0.021027   -0.710191
C     -4.288716    1.138833   -0.922125
C     -3.095142    2.821728    0.210579
C      2.081641    0.053199    0.967399
C      2.197467    0.917005   -1.318868
C      1.342624   -0.959954    0.132041
C      0.667907    0.993402   -1.185292
C      4.253310    0.862418    0.102395
C      2.794450    1.037218    0.038194
C     -2.110983    0.649173   -0.002355
C      7.052254    0.645271    0.345579
C     -1.816735   -2.861611    0.008292
C     -4.228342    2.453307   -0.467617
C     -1.041707   -0.289859    0.256037
C     -0.542896   -1.177361   -1.510103
C      0.200378   -0.263885   -0.591525
Cl     8.789461    0.505175    0.499011
N     -1.235219   -1.629620   -0.351123
O     -0.533167   -1.407621   -2.728634
O     -5.273653    3.307921   -0.706513
H     -6.382879    4.972355   -0.081842
H     -4.714358    4.795120    0.589661
H     -4.990460    5.295756   -1.145286
H     -3.443084   -6.273515    1.020337
H     -4.039791   -5.171409   -1.117726
H     -1.804626   -5.171057    2.493569
H     -3.036875   -3.037002   -1.763901
H     -0.768348   -3.070409    1.914882
H      4.463805    2.061537    1.911141
H      4.487704   -0.347326   -1.630160
H     -3.404751   -0.728229   -1.095070
H     -1.202579    2.345216    0.993087
H      6.866564    1.838957    2.066715
H      6.964056   -0.552513   -1.437760
H     -5.188778    0.861360   -1.462741
H     -3.010291    3.835795    0.573916
H      2.818793   -0.529358    1.574414
H      1.331354    0.547625    1.603793
H      2.518940    1.803736   -1.947512
H      2.492911    0.009157   -1.866293
H      0.912953   -1.698380    0.872101
H      2.016128   -1.496522   -0.587731
H      0.476862    1.927927   -0.635957
H      0.290325    1.148705   -2.215201
H      2.520084    2.046802    0.461191
H     -0.824377   -0.378777    1.337730
