55

C     -5.859321    2.650663   -0.862667
C      4.954590   -0.747933    0.489913
C      5.836108   -0.080403   -0.524445
C     -6.349147    1.511607    0.011414
C     -4.360547    2.760210   -0.792227
C      3.644043   -0.106027    0.534796
C      6.012138    1.366881   -0.131796
C     -2.028931   -0.660163    0.099838
C     -5.317303    0.389577   -0.088318
C     -3.819701    2.285839    0.553268
C     -2.964152    0.007727    0.400279
C      2.299823   -2.107407   -0.165389
C      1.167429   -0.092305    0.283126
C      0.249449   -3.536828   -0.010592
C      2.503220   -0.707681    0.248297
C      1.081285   -2.484464    0.677725
C     -0.862711   -1.473862   -0.250974
C      0.282350   -1.224472    0.708102
C     -1.144932   -2.954219    0.003700
C      6.895505    2.086371   -1.090520
C     -4.136675    0.823012    0.755954
O     -1.946948   -3.488003   -0.996146
O      7.382142    1.497587   -2.059613
O      7.157395    3.426133   -0.870553
O     -4.487065    0.570456    2.102323
H     -6.118181    2.404704   -1.916710
H     -6.296600    3.631466   -0.554507
H      5.443426   -0.562111    1.492329
H      4.923738   -1.847160    0.383132
H      5.360539   -0.172897   -1.530010
H      6.847688   -0.578614   -0.580976
H     -6.386364    1.807491    1.085369
H     -7.324098    1.165065   -0.348135
H     -3.981683    3.778546   -0.990775
H     -3.888190    2.101097   -1.554635
H      3.594912    0.955227    0.837982
H      5.019253    1.879249   -0.173903
H      6.420585    1.376657    0.900335
H     -5.029877    0.213573   -1.129857
H     -5.727413   -0.555530    0.335975
H     -2.738769    2.493615    0.574014
H     -4.328065    2.917082    1.334509
H      3.144141   -2.770698    0.008573
H      1.946675   -2.141213   -1.223785
H      1.096262    0.768629    0.977590
H      0.833408    0.274781   -0.709817
H      0.279350   -4.484852    0.568853
H      0.609295   -3.703888   -1.058679
H      1.468507   -2.806834    1.657314
H     -0.546156   -1.280248   -1.283796
H     -0.186068   -1.033422    1.708685
H     -1.557942   -3.050247    1.010994
H     -2.606110   -4.084550   -0.559840
H      7.737078    3.976402   -1.523168
H     -4.197387   -0.383619    2.256709
