53

C      7.008968   -2.535357    0.540927
C     -6.485022   -0.722873    1.003434
C      5.999070   -3.073804   -0.198958
C      7.056969   -1.191480    0.820382
C     -6.198881    0.048422   -0.244217
C     -5.325473   -1.584564    1.456107
C      1.329460    2.951998    0.500256
C      4.978257   -2.261237   -0.697175
C      6.033078   -0.401878    0.316677
C     -4.959437   -0.359471   -0.970943
C     -4.088683   -0.698713    1.367584
C      0.117509    2.039848    0.671436
C      3.940624   -0.042010   -0.926133
C      2.025079    2.272910   -0.655735
C      2.803358    0.082767    0.072082
C     -0.453270    0.470213   -1.127372
C      5.012545   -0.912498   -0.425257
C     -3.774677   -0.562393   -0.089807
C      0.491738    0.746300    0.056408
C     -2.830632    0.590702   -0.330499
N     -1.722323    0.377062   -0.711823
N      1.790408    0.907764   -0.483511
O     -3.350756    1.853231   -0.077690
H      7.828044   -3.134484    0.949558
H     -7.370688   -1.361951    0.942808
H     -6.632813    0.024159    1.831906
H      5.972951   -4.129371   -0.412611
H      7.855320   -0.769408    1.408696
H     -6.190738    1.144993   -0.073679
H     -7.066425   -0.130189   -0.943195
H     -5.494190   -1.893119    2.485525
H     -5.168544   -2.421410    0.737366
H      1.937327    2.932823    1.401618
H      1.057719    3.971471    0.172937
H      4.209925   -2.752509   -1.276395
H      6.108754    0.655009    0.563610
H     -4.772798    0.446205   -1.738639
H     -5.113222   -1.281517   -1.585379
H     -3.241967   -1.254711    1.867436
H     -4.214913    0.250832    1.894661
H     -0.717934    2.572549    0.159041
H     -0.167640    1.967973    1.736961
H      4.319163    0.970914   -1.105042
H      3.549934   -0.530038   -1.864840
H      3.088519    2.579968   -0.735655
H      1.556117    2.605888   -1.609500
H      2.371560   -0.889242    0.358476
H      3.161907    0.549278    1.024142
H     -0.332789    1.321299   -1.873735
H     -0.103330   -0.484636   -1.620242
H     -3.239454   -1.507049   -0.381143
H      0.420459   -0.114899    0.776177
H     -3.008161    2.666235   -0.601219
