51

C      5.529573    1.193517    0.371367
C      2.613149    1.130098    1.497112
C     -3.103725    0.208323    2.021964
C     -3.241755   -1.686730    0.503275
C     -0.666347   -1.764941   -1.303973
C      4.816690    1.359514   -0.692941
C      0.907113   -1.235193    1.196229
C     -0.453385   -0.806168    1.543732
C      2.755492    1.062849   -1.888794
C     -1.495355    0.463792   -1.896897
C      2.818659    0.159628    0.364186
C      3.425725    0.861389   -0.779959
C      1.572655   -0.629162    0.037228
C      1.391189    0.595455   -2.025906
C     -2.945727    0.207234   -1.675394
C     -1.256150   -0.119238    0.500010
C      0.675089    0.284174   -0.810776
C     -3.466405    0.576497   -0.340441
C     -2.705352   -0.309378    0.650796
C     -0.684473   -0.309584   -0.903471
O      0.958217    0.505015   -3.202112
O     -3.685322   -0.269022   -2.502371
O     -4.824265    0.463091   -0.211769
H      5.157937    0.687513    1.249777
H      6.559746    1.557969    0.447726
H      3.186746    2.045301    1.251343
H      1.558388    1.449090    1.604262
H      3.039843    0.765788    2.464275
H     -2.421957    1.050579    2.267925
H     -3.009222   -0.574676    2.801845
H     -4.135094    0.602106    1.985227
H     -2.799545   -2.455075    1.128657
H     -3.266642   -2.064250   -0.543709
H     -4.332701   -1.637055    0.804186
H      0.298566   -2.028539   -1.786816
H     -1.440871   -1.977426   -2.096097
H     -0.850959   -2.449180   -0.450781
H      5.218453    1.863882   -1.540766
H      0.967264   -2.363205    1.115165
H      1.565452   -1.033578    2.097446
H     -0.476189   -0.165718    2.469260
H     -1.048827   -1.714893    1.861768
H      3.244017    1.603199   -2.741662
H     -1.328899    1.547163   -1.730020
H     -1.304165    0.153245   -2.942244
H      3.635424   -0.538337    0.735882
H      1.896259   -1.421002   -0.678268
H     -1.094196    0.994094    0.666873
H      0.613114    1.235879   -0.203150
H     -3.129906    1.618630   -0.128850
H     -5.237324    1.307335   -0.560349
