57

C      8.132312    0.617170    1.015110
C     -4.808532    1.525294    1.164589
C      8.113819   -0.787768    0.479563
C      6.784160   -1.157056   -0.124589
C      5.698231   -1.044407    0.935044
C      4.373205   -1.400747    0.377456
C      3.340646   -0.575816    0.346516
C      2.043994   -0.978243   -0.218820
C     -0.846815    1.762752   -1.590934
C      1.028282   -0.148409   -0.242529
C     -0.519796    0.368840   -2.010208
C     -1.841806    1.851952   -0.472278
C     -2.687835   -0.824369   -0.538708
C     -7.190138   -0.654304   -1.674933
C     -3.804447    0.382805    1.377143
C     -0.271135   -0.551731   -0.809091
C     -1.395161   -0.487318    0.169397
C     -1.544806    0.919966    0.668390
C     -3.891519   -0.635052    0.311748
C     -6.076178   -1.066106   -0.773018
N     -2.553024    0.961146    1.653908
O     -6.871520    0.608022   -2.179378
O     -6.142323   -2.199138   -0.187272
O     -4.983429   -0.276770   -0.547341
H      7.245681    1.205232    0.702126
H      8.177218    0.663312    2.125231
H      9.018622    1.202457    0.633989
H     -4.436364    2.472331    1.601257
H     -5.776320    1.311734    1.659577
H     -5.020844    1.696851    0.105941
H      8.388649   -1.463803    1.311451
H      8.913139   -0.855793   -0.285238
H      6.551411   -0.491773   -0.956176
H      6.845961   -2.221894   -0.437417
H      5.961496   -1.624408    1.840010
H      5.637463    0.050519    1.203410
H      4.195425   -2.399090   -0.045341
H      3.468167    0.415048    0.750258
H      1.972728   -1.984016   -0.609971
H      0.046725    2.331726   -1.292496
H     -1.290992    2.283854   -2.467711
H      1.146437    0.836149    0.155575
H     -1.208904   -0.074929   -2.737116
H      0.481349    0.414098   -2.533451
H     -1.799365    2.889957   -0.072306
H     -2.841575    1.716554   -0.894921
H     -2.580600   -1.897874   -0.871939
H     -2.793706   -0.241432   -1.464559
H     -7.285064   -1.322759   -2.557567
H     -8.154366   -0.550514   -1.130564
H     -4.162860   -0.105674    2.335392
H     -0.234701   -1.585671   -1.214356
H     -1.230711   -1.214479    0.965829
H     -0.586026    1.249658    1.143652
H     -4.174261   -1.656919    0.705024
H     -2.662537    1.923115    2.050463
H     -5.897459    0.817721   -2.071343
