46

C     -1.005130   -3.812468    0.814232
C      3.492252    0.050999   -1.643746
C      3.427726    0.084494    0.789283
C      1.550420    2.378028    0.511970
C      0.147385    1.977538   -0.079235
C      0.483999   -2.491554   -0.667408
C     -4.952703    1.166821   -0.428221
C      1.626773   -1.584384   -0.536850
C     -4.613252   -0.113079   -0.041622
C      2.562094    2.004181   -0.550525
C     -2.638488    1.740135   -0.620506
C     -0.338674   -2.473385    0.634989
C     -3.994962    2.104654   -0.720993
C      0.187046    0.498467   -0.200533
C     -2.310721    0.477484   -0.236988
C      1.341737   -0.121757   -0.388303
C     -3.299316   -0.473776    0.058629
C     -1.108015   -0.136715   -0.055869
C     -1.410019   -1.452117    0.341148
C      2.681873    0.526763   -0.478057
O     -4.261675    3.401388   -1.113528
O     -2.691874   -1.608366    0.397248
H     -0.280283   -4.579638    1.129359
H     -1.817325   -3.676894    1.573980
H     -1.492049   -4.103427   -0.141567
H      2.938484   -0.194526   -2.543033
H      4.221940    0.861174   -1.942394
H      4.130800   -0.813797   -1.373641
H      4.124836    0.874244    1.133720
H      2.718544   -0.227560    1.582782
H      4.037229   -0.811119    0.550507
H      1.771435    1.773130    1.405771
H      1.553199    3.433495    0.796489
H     -0.452693    2.354327    0.762133
H      0.221509    2.540219   -0.994408
H     -0.219700   -2.276351   -1.479242
H      0.865352   -3.548673   -0.830691
H     -5.985093    1.453218   -0.507047
H      2.324404   -1.747746   -1.385184
H      2.238490   -1.886297    0.368470
H     -5.365220   -0.857748    0.190081
H      3.481666    2.553546   -0.305808
H      2.146862    2.276232   -1.546825
H     -1.951161    2.478477   -0.882178
H      0.279341   -2.201004    1.486777
H     -4.367044    4.183367   -0.488727
