36

C      2.731313    0.080764   -0.331212
C      1.530434    0.430932    0.512898
C      4.027773    0.263915    0.413281
C      0.283864    0.215359   -0.315132
C     -2.492088   -1.103671   -0.115480
C     -1.901486   -1.510963    1.220408
C      5.143699   -0.124446   -0.558689
C     -3.291915    1.227601    0.280604
C     -2.214221    0.358656   -0.276775
C     -0.941369    0.557836    0.506886
C     -1.069385   -0.367674    1.649472
C     -4.591093    0.993451   -0.366229
O      4.958480   -1.448739   -0.936765
O     -0.584208   -0.221370    2.738779
O     -5.601802    1.652703    0.031697
O     -4.803624    0.100238   -1.387991
H      2.696807    0.668437   -1.270821
H      2.656238   -0.986203   -0.622083
H      1.504198   -0.146329    1.456399
H      1.599392    1.512389    0.798154
H      4.090673   -0.445603    1.247415
H      4.172223    1.297073    0.776176
H      0.211655   -0.837293   -0.622274
H      0.264221    0.838508   -1.206582
H     -3.538260   -1.400200   -0.138413
H     -1.974261   -1.629277   -0.959741
H     -1.287797   -2.443950    1.077608
H     -2.710435   -1.721895    1.939963
H      6.140002    0.060429   -0.106150
H      4.980543    0.489948   -1.468619
H     -3.425064    1.011933    1.367719
H     -2.987344    2.287543    0.192955
H     -2.059650    0.655393   -1.335131
H     -0.910404    1.590717    0.877671
H      4.967676   -2.055270   -0.174585
H     -5.574786    0.149057   -2.045663
