47

C     -3.309736   -1.236076    1.751396
C     -2.162696   -0.309060    1.611419
C      3.668329    0.038171    2.029199
C      4.431068   -0.832872    1.292547
C     -2.920735    1.428338   -0.673254
C      2.467998    0.443837    1.459883
C      4.052088   -1.296744    0.052589
C      0.254301   -2.016570   -0.637904
C     -2.564235   -0.027621   -0.751731
C     -1.096129   -1.802971   -0.068225
C      1.172431    1.537241   -1.364435
C     -1.669996    2.163402   -1.008979
C      0.532859    2.594142   -0.487033
C      2.082625   -0.012738    0.226126
C      2.859062   -0.893284   -0.512717
C      0.769883   -0.870102   -1.474025
C     -0.341033    0.580552    0.264769
C     -1.464531   -0.389816    0.243450
C      0.838346    0.299385   -0.562123
N      2.166787   -1.145679   -1.712081
N     -0.679979    1.939365   -0.013371
H     -3.491895   -1.339120    2.855758
H     -4.270863   -0.861345    1.347584
H     -3.091272   -2.281876    1.420461
H     -1.417586   -0.586540    2.416200
H     -2.488053    0.703575    1.847541
H      3.958956    0.403830    2.997903
H      5.384416   -1.173105    1.712388
H     -3.739010    1.601423   -1.400188
H     -3.281518    1.763221    0.300046
H      1.871519    1.131914    2.046838
H      4.646808   -1.983688   -0.535916
H      0.298228   -2.928166   -1.256285
H      1.005707   -2.168702    0.179897
H     -2.211322   -0.216245   -1.796900
H     -3.450883   -0.637214   -0.505084
H     -1.818002   -2.316788   -0.773359
H     -1.142713   -2.468310    0.846614
H      2.262792    1.731078   -1.422562
H      0.783656    1.522155   -2.384049
H     -1.329278    1.905168   -2.038394
H     -1.898574    3.244041   -1.028506
H      0.309207    3.456350   -1.151005
H      1.219281    2.869928    0.311542
H      0.193278   -0.708015   -2.392085
H      0.038370    0.613319    1.335923
H      2.572046   -1.467787   -2.599861
