31

C     -3.746396    1.203536   -1.220846
C      5.118226   -0.192908    0.072838
C      4.379668   -1.240017   -0.408078
C      4.491924    0.939805    0.545774
C      3.024443   -1.174404   -0.424696
C      3.132893    1.014334    0.532817
C     -1.170081   -0.489932   -0.999091
C     -1.127206    0.852939    0.989166
C      0.202869   -0.556925   -0.951446
C      0.267484    0.766159    1.010143
C     -3.317469    0.312160   -0.047015
C     -1.830973    0.223905   -0.015105
C      2.397102   -0.047404    0.045264
C      0.946754    0.060243    0.039859
C     -3.966003   -1.007009   -0.134880
O     -4.699854   -1.291574   -1.096268
O     -3.757914   -1.942045    0.863803
H     -3.460184    2.268911   -0.978185
H     -3.229677    0.932441   -2.146754
H     -4.846135    1.168853   -1.327097
H      6.206038   -0.237927    0.091946
H      4.880127   -2.121344   -0.773484
H      5.039573    1.798699    0.939988
H      2.380929   -1.970292   -0.793448
H      2.619673    1.878119    0.891234
H     -1.735883   -0.975105   -1.777823
H     -1.629406    1.413857    1.763517
H      0.760748   -1.113888   -1.712786
H      0.854582    1.243427    1.779126
H     -3.679478    0.859602    0.853352
H     -4.506373   -2.576216    1.136371
