47

C     -2.955102   -2.153315    0.911267
C     -2.255496   -1.287315   -0.083956
C      2.769232   -2.204384   -2.111358
C      3.887885   -2.152193   -1.333798
C     -2.777372    1.615151    0.805939
C      1.713744   -1.346976   -1.919719
C      3.968567   -1.220338   -0.330318
C      0.845744   -0.276933    1.871087
C     -1.913363    0.583189    1.459060
C     -0.221746   -1.143368    1.260689
C      1.196194    1.917543   -1.209830
C     -2.407161    1.950708   -0.590713
C     -0.163970    2.598377   -1.195594
C      1.786916   -0.406620   -0.912637
C      2.920280   -0.335921   -0.106214
C      1.302649    0.837159    0.989148
C     -0.567614    0.372061   -0.645239
C     -1.247545   -0.349733    0.481927
C      0.882861    0.658670   -0.422200
N      2.748038    0.701737    0.851862
N     -1.138869    1.588041   -1.033196
H     -3.582874   -2.877471    0.310023
H     -2.299317   -2.782131    1.524646
H     -3.690591   -1.599057    1.530019
H     -3.018327   -0.757819   -0.676033
H     -1.736622   -1.972664   -0.816550
H      2.749713   -2.964757   -2.900002
H      4.740473   -2.819342   -1.462804
H     -2.746864    2.525930    1.469421
H     -3.838950    1.290788    0.821205
H      0.835261   -1.385765   -2.528403
H      4.866295   -1.184875    0.287122
H      1.680502   -0.980385    2.166091
H      0.527391    0.176627    2.848000
H     -2.530121   -0.038058    2.141170
H     -1.147423    1.069212    2.104218
H     -0.736541   -1.628813    2.142180
H      0.199239   -1.960707    0.667290
H      1.521927    1.640857   -2.220388
H      1.949390    2.500020   -0.651503
H     -3.175350    1.548189   -1.315904
H     -2.522563    3.071638   -0.704093
H     -0.143701    3.385889   -0.436537
H     -0.272623    3.056225   -2.219736
H      1.085069    1.842430    1.398156
H     -0.592830   -0.323780   -1.539015
H      3.505563    1.222278    1.325219
