38

C      5.795032    1.509613   -0.265382
C      4.760992    1.508881   -1.173744
C      5.736163    0.730237    0.872546
C     -4.881508   -0.377086    1.494998
C     -5.788835    0.057381    0.534349
C      3.638450    0.718014   -0.952677
C      4.613921   -0.063980    1.099955
C     -3.571472   -0.664553    1.159450
C     -5.390083    0.207217   -0.772451
C      2.374424   -0.900099    0.402787
C     -0.637801   -1.149940   -0.160486
C     -2.137901   -0.420598   -2.090587
C      3.587225   -0.068957    0.204095
C     -1.943573   -0.727513   -0.769239
C     -3.148117   -0.521406   -0.144580
C     -4.084167   -0.083835   -1.084426
C      1.300533   -0.176264    1.106911
C     -0.007408    0.081606    0.471899
N     -3.424515   -0.039497   -2.249233
O      1.428168    0.254959    2.249241
O     -0.919270    0.745489    1.235039
H      6.665673    2.122445   -0.432971
H      4.827127    2.133423   -2.068165
H      6.551826    0.758986    1.548096
H     -5.155362   -0.507488    2.522135
H     -6.787697    0.263169    0.852432
H      2.828180    0.723775   -1.671970
H      4.571058   -0.670217    1.990598
H     -2.878599   -1.011691    1.924406
H     -6.124754    0.550526   -1.503271
H      2.022582   -1.217933   -0.601499
H      2.622132   -1.829774    0.961317
H     -0.002766   -1.543464   -0.951343
H     -0.881098   -1.908899    0.607971
H     -1.396800   -0.471292   -2.877200
H      0.235061    0.755144   -0.415137
H     -3.823464    0.246801   -3.164456
H     -0.573357    0.986820    2.110590
