30

C      3.775328    1.726691   -0.078797
C      2.428133    1.920527   -0.303766
C      4.276190    0.458940    0.187032
C     -0.203349   -1.384140   -0.181968
C     -4.249518    0.143168    0.383917
C      1.604779    0.798835   -0.252290
C     -0.727558   -0.197947   -0.438756
C      3.432281   -0.629528    0.230462
C      1.204391   -1.619848    0.058166
C     -2.872966    0.817383    0.307754
C     -3.824125   -1.301680    0.376517
C      2.098583   -0.461207    0.011342
C      0.185380    0.933042   -0.478648
C     -2.161742   -0.083940   -0.664285
O      3.908078   -1.918192    0.495840
O      1.654161   -2.764300    0.297793
O     -2.342498    0.773230    1.580771
O     -4.308052   -2.249624    1.045137
O     -0.284258    2.067498   -0.719635
O     -2.780159   -1.348538   -0.532996
H      4.473405    2.565051   -0.105271
H      2.023493    2.901759   -0.511997
H      5.324676    0.278023    0.366709
H     -0.855171   -2.266300   -0.142111
H     -4.834818    0.365329   -0.526832
H     -4.755982    0.415462    1.322456
H     -2.993280    1.832725   -0.084806
H     -2.379365    0.289469   -1.685138
H      4.889872   -2.082886    0.663368
H     -1.705908    0.020998    1.680797
