38

C     -6.220344    0.201443    0.730961
C     -5.699565    1.443034    0.467317
C     -5.342589   -0.819888    1.026407
C      4.111638   -1.314421    1.669162
C      5.366434   -1.095495    1.140742
C     -4.337142    1.649334    0.500277
C     -3.965056   -0.605683    1.058462
C      3.018060   -1.110897    0.856728
C      5.495543   -0.683593   -0.170892
C     -1.984735    0.806240    0.842217
C      0.723812   -0.531735   -1.299960
C      2.917856   -0.065769   -2.553519
C     -3.455647    0.644899    0.791961
C      2.188945   -0.438351   -1.443217
C      3.120518   -0.696568   -0.465228
C      4.401354   -0.479345   -0.985478
C     -1.339224    0.554500   -0.450366
C      0.122732    0.666389   -0.588974
N      4.232029   -0.095295   -2.264194
O     -2.028283    0.251480   -1.407512
O      0.750880    1.013621    0.576068
H     -7.287866    0.080509    0.695651
H     -6.356852    2.282420    0.228363
H     -5.750576   -1.795149    1.233754
H      3.987995   -1.641438    2.707312
H      6.252114   -1.242303    1.740437
H     -3.966302    2.623986    0.290681
H     -3.354152   -1.467488    1.300041
H      2.020318   -1.281994    1.243701
H      6.465117   -0.499705   -0.627882
H     -1.563411    0.058740    1.568197
H     -1.690459    1.801490    1.276005
H      0.250804   -0.630105   -2.307897
H      0.431715   -1.451206   -0.748760
H      2.466073    0.204172   -3.500890
H      0.300233    1.527376   -1.307197
H      5.011413    0.135112   -2.901292
H      0.706618    2.001685    0.738533
