33

C      2.223466   -0.189065   -0.626200
C      1.576205    0.000061    0.694574
C      3.529622   -0.901199   -0.515935
C      0.223421    0.699233    0.584237
C      4.583324   -0.232412    0.314913
C     -2.989977   -1.612647    0.154317
C     -3.129055   -0.388714   -0.720679
C     -0.752161   -0.067229   -0.254551
C     -2.074541    0.595853   -0.372890
C     -4.028365    1.124108    0.634345
N     -4.332991    0.273093   -0.275528
N     -2.611871    1.111792    0.878228
O      4.267315   -0.048655    1.633638
O     -4.992570    1.928995    1.268410
S     -1.209186   -1.651798    0.520252
H      1.583823   -0.793423   -1.324208
H      2.416947    0.766279   -1.163746
H      2.204169    0.731120    1.280259
H      1.538448   -0.934327    1.252890
H      4.010105   -1.045015   -1.535669
H      3.400645   -1.926356   -0.064605
H      0.409714    1.667355    0.078641
H     -0.143661    0.882827    1.591214
H      5.472812   -0.933315    0.281015
H      4.968524    0.693619   -0.175368
H     -3.609642   -1.584200    1.053336
H     -3.302305   -2.501994   -0.455430
H     -3.165320   -0.648725   -1.799031
H     -0.377598   -0.281490   -1.251381
H     -2.109555    1.398521   -1.138344
H     -2.177431    1.411936    1.751758
H      4.557047    0.836333    1.948668
H     -5.959360    1.619439    1.354731
