26

C     -1.070580   -1.669368    1.721516
C     -1.632646   -0.507276    0.934449
C      2.576168   -0.869269   -1.964270
C      1.552108   -1.708947   -1.597515
C      2.539820    0.428952   -1.502980
C      0.505222   -1.255879   -0.779883
C      1.512613    0.871665   -0.701002
C      0.464362    0.028334   -0.319732
C     -1.252714    1.763731    0.117858
C     -0.610556    0.501660    0.543525
N     -1.119924    2.284815   -1.038259
O     -2.048826    2.410614    1.050186
O      0.036777    0.876974    1.778404
H     -1.432309   -2.645587    1.382351
H      0.040847   -1.593120    1.744241
H     -1.386402   -1.523927    2.802156
H     -2.162149   -0.943242    0.036107
H     -2.434855   -0.044107    1.561765
H      3.404103   -1.182312   -2.595595
H      1.577792   -2.726523   -1.957320
H      3.344879    1.124149   -1.779746
H     -0.255727   -1.988560   -0.560355
H      1.448072    1.884821   -0.318043
H     -1.600372    3.175637   -1.271737
H     -2.812471    3.020301    0.806727
H      0.816767    0.286465    1.907149
