29

C      5.039956    0.593308    0.013980
C      0.285546    0.284338    1.071574
C      1.112130   -0.823009   -0.847745
C      1.565665    0.724970    1.321090
C      2.391047   -0.375709   -0.587877
C     -2.555338    1.176274   -0.258778
C      0.036621   -0.511146   -0.037890
C      2.640589    0.415317    0.514724
C     -2.249046   -0.084111   -0.987347
C     -1.281382   -0.997929   -0.345892
C     -3.277583   -1.465995    0.454113
N     -2.033011   -1.531884    0.765504
O     -3.691494    1.748413   -0.862417
O     -4.321094   -1.893269    1.284112
O      3.921470    0.884865    0.807218
O     -3.430753   -0.905113   -0.832205
H      5.833348    1.366345    0.232200
H      5.501397   -0.389668    0.283430
H      4.793419    0.625651   -1.064045
H     -0.569402    0.515681    1.690556
H      0.986632   -1.449549   -1.744135
H      1.706425    1.343835    2.201126
H      3.200810   -0.637728   -1.238319
H     -1.743386    1.920913   -0.378083
H     -2.840390    1.014982    0.798674
H     -2.067606    0.142636   -2.047731
H     -1.178492   -1.879188   -1.054672
H     -3.638264    2.732648   -0.876529
H     -4.137812   -2.545878    2.059379
