29

C      2.690722   -1.235604    0.990065
C      2.715127    1.182702    0.138998
C     -2.979560    0.301223   -0.244748
C     -1.314487   -1.526986   -0.231885
C     -0.151787   -1.284515    0.644685
C     -0.821530    0.626453   -1.430824
C      1.960950   -0.053857    0.479543
C     -1.831968   -0.376363   -0.997618
C      0.643885   -0.087890    0.323524
C     -0.081770    1.111167   -0.192581
O     -1.020499    1.582288    0.697787
H      2.386868   -1.454215    2.041900
H      2.542776   -2.138941    0.331421
H      3.784860   -1.067724    1.018582
H      3.780606    1.073857    0.428302
H      2.316251    2.000850    0.797938
H      2.610282    1.464213   -0.927683
H     -3.959205   -0.197416   -0.499311
H     -2.871203    0.158242    0.859031
H     -3.098431    1.355799   -0.534984
H     -1.100632   -2.390340   -0.928587
H     -2.157058   -1.916271    0.413398
H      0.524935   -2.172407    0.628024
H     -0.452131   -1.185288    1.729005
H     -1.351046    1.500108   -1.857025
H     -0.102932    0.158805   -2.123870
H     -2.313318   -0.776464   -1.939130
H      0.651989    1.902878   -0.439596
H     -1.001695    2.564729    0.825636
