25

C     -2.071182    1.230453   -0.889292
C      3.605228    0.630173   -0.298508
C     -2.189776    0.677986    0.515248
C      2.635002    0.150319    0.756466
C     -2.080900   -0.804633    0.569000
C     -0.783193   -1.354281    0.049150
C      0.390400   -0.858926    0.796301
N     -0.579528   -1.204022   -1.342953
O      0.459195   -0.881125    2.057683
O      1.473134   -0.343870    0.106255
H     -1.080736    1.129853   -1.326330
H     -2.806608    0.719880   -1.559562
H     -2.343713    2.302312   -0.914759
H      3.512748   -0.067851   -1.159587
H      4.636879    0.583082    0.144896
H      3.407008    1.667092   -0.617407
H     -3.201150    0.956843    0.876915
H     -1.469911    1.210742    1.157334
H      3.112753   -0.667550    1.323796
H      2.365416    0.947488    1.484931
H     -2.169943   -1.115742    1.629429
H     -2.900805   -1.253707   -0.001888
H     -0.821847   -2.465940    0.257776
H     -1.393786   -1.177973   -1.950868
H      0.295315   -0.805564   -1.664026
