52

C      6.038511    1.724851   -0.255338
C     -5.787554    1.947381    0.811125
C     -5.633920    1.185998   -0.325405
C     -4.758776    2.126158    1.713447
C      0.843566   -3.245640    1.317127
C      1.777181   -3.035061    0.140858
C     -4.432204    0.571767   -0.598954
C     -3.550711    1.491162    1.409908
C      0.459871   -1.830086    1.776823
C      2.035009    2.102733    0.845730
C      3.336132    1.964298    0.478945
C      1.094744   -2.332758   -0.982529
C     -0.418612   -0.521227   -1.684710
C     -1.879769   -0.513310   -1.305337
C     -0.283661    1.281592    0.865134
C      2.839225   -0.108404   -0.609386
C      1.129285    1.114580    0.474222
C     -3.375849    0.726267    0.280577
C      3.744633    0.883278   -0.235964
C     -0.321348   -1.240351    0.656299
C      1.512640    0.012692   -0.246594
C     -1.058048    0.013119    0.972294
C      0.491295   -1.000446   -0.595635
N     -2.142594    0.092885   -0.022459
O      5.075184    0.770420   -0.594695
H      7.074202    1.318316   -0.321996
H      6.015200    2.628103   -0.905463
H      5.943339    2.098702    0.792741
H     -6.733233    2.413947    0.999405
H     -6.464356    1.077131   -0.996700
H     -4.837820    2.708070    2.605068
H      1.331838   -3.808229    2.108935
H     -0.084430   -3.695166    0.921555
H      2.049285   -4.049237   -0.219091
H      2.688461   -2.577223    0.522414
H     -4.284615   -0.034819   -1.484260
H     -2.695151    1.601771    2.091593
H     -0.166116   -1.847005    2.674768
H      1.430472   -1.313812    1.961873
H      1.653818    2.939417    1.413353
H      4.017989    2.767862    0.793033
H      0.234201   -2.976227   -1.293483
H      1.750840   -2.273105   -1.864715
H     -0.101492    0.480719   -2.022913
H     -0.327399   -1.189026   -2.571639
H     -2.371941   -1.495720   -1.400804
H     -2.368682    0.151582   -2.078632
H     -0.715952    1.981662    0.084794
H     -0.317710    1.890277    1.801706
H      3.143365   -0.958271   -1.170445
H     -1.092472   -2.013448    0.364055
H     -1.505871   -0.008165    2.005450
