52

C      5.757888    2.487626   -0.308616
C     -6.094358    0.904191    0.308040
C     -5.534075   -0.085763   -0.457695
C     -5.267218    1.695167    1.075375
C      0.904610   -3.476440   -0.417762
C      2.023410   -2.887956    0.414923
C     -4.147682   -0.263312   -0.438017
C     -3.881736    1.500760    1.080446
C      0.187176   -2.360213   -1.107597
C      1.768362    1.863314   -1.642458
C      3.064793    2.094833   -1.241045
C      1.466023   -1.926701    1.418243
C     -0.050846   -0.103633    1.901274
C     -1.070279    0.896909    1.413389
C     -0.390120    0.715333   -1.457482
C      2.819657    0.445271    0.477659
C      0.981852    0.912116   -0.979930
C     -3.301507    0.507306    0.314337
C      3.598269    1.387749   -0.179160
C     -0.370465   -1.396557   -0.101943
C      1.519764    0.199226    0.090635
C     -1.191825   -0.309188   -0.719774
C      0.703643   -0.793540    0.785761
N     -1.895581    0.368185    0.348235
O      4.887320    1.565594    0.278497
H      5.694261    2.461133   -1.412330
H      5.519208    3.526076    0.027744
H      6.797192    2.276506    0.041146
H     -7.163238    1.047207    0.298121
H     -6.148063   -0.718515   -1.065836
H     -5.684388    2.481387    1.687035
H      1.381286   -4.112580   -1.207094
H      0.202548   -4.052197    0.190988
H      2.739825   -2.397854   -0.252040
H      2.518221   -3.707913    0.968586
H     -3.780021   -1.062524   -1.059340
H     -3.300759    2.161602    1.701376
H     -0.678474   -2.802497   -1.646067
H      0.814869   -1.865408   -1.873889
H      1.398763    2.440118   -2.475254
H      3.703118    2.832171   -1.740036
H      0.684580   -2.507853    1.998231
H      2.210367   -1.651925    2.149926
H      0.600690    0.360217    2.639775
H     -0.640097   -0.915410    2.413120
H     -1.747528    1.068663    2.297335
H     -0.583561    1.842900    1.154851
H     -0.917266    1.696405   -1.357255
H     -0.381516    0.532066   -2.565446
H      3.197002   -0.127846    1.311842
H     -1.040839   -1.970439    0.570734
H     -1.883254   -0.773765   -1.476041
