49

C      6.009130   -1.929351    0.489269
C      5.983454   -1.500002   -0.822875
C      4.813175   -2.081562    1.143063
C      4.785335   -1.232283   -1.448881
C      3.604825   -1.810174    0.503958
C     -3.663967   -0.784273    1.533720
C     -4.837391   -1.451092    1.230884
C     -2.601827   -1.716876   -0.353105
C     -0.278694    4.461196   -0.555473
C     -1.459921    3.478970    1.223847
C      2.313558   -1.040131   -1.547252
C      3.544222   -1.382294   -0.791548
C     -2.516670   -0.902014    0.746567
C     -1.026990    4.610880    0.577706
C     -4.909516   -2.255404    0.140752
C     -3.790224   -2.388158   -0.650500
C      0.033313    3.168291   -1.038641
C     -1.160936    2.205565    0.762688
C     -0.400303    2.045490   -0.387464
C     -0.115443   -0.282461    0.351492
C     -1.333461   -0.159716    1.194320
C     -0.009751    0.649715   -0.813224
O     -1.345871    5.894409    1.065868
O     -6.093042   -2.929091   -0.171116
O     -3.854372   -3.206071   -1.761922
O      0.783883    3.126130   -2.187094
O      0.964909    0.090423    1.202117
O     -1.663331    1.149912    1.506675
S      1.734552    0.625890   -1.344075
H      6.974909   -2.132042    0.981099
H      6.951771   -1.392079   -1.306755
H      4.806807   -2.412339    2.163040
H      4.766677   -0.907990   -2.457042
H      2.691037   -1.954833    1.062795
H     -3.630613   -0.157880    2.410340
H     -5.743792   -1.360578    1.838942
H     -1.722008   -1.807174   -0.967565
H      0.061496    5.344131   -1.060845
H     -2.041835    3.615249    2.115556
H      1.500030   -1.790875   -1.296726
H      2.475928   -1.207981   -2.654315
H      0.001742   -1.331521    0.046117
H     -1.039270   -0.638276    2.194211
H     -0.624793    0.326696   -1.696646
H     -0.680940    6.315555    1.733244
H     -6.898962   -2.810048    0.428973
H     -3.095996   -3.363798   -2.389588
H      1.106655    2.388033   -2.735403
H      0.632511    0.821832    1.790811
