25

C     -3.245999    0.269976   -0.296868
C      3.613814    0.841795   -0.329382
C     -2.437494    0.668979    0.914751
C      2.805826    0.429266   -1.543911
C     -0.962556    0.743663    0.571945
C     -0.486291   -0.619016    0.087554
C      0.962133   -0.534501   -0.246126
N     -0.695287   -1.595399    1.118297
O      1.784031   -1.267206    0.360605
O      1.452232    0.328111   -1.209518
H     -3.087464    0.969343   -1.150491
H     -4.325982    0.352323    0.000699
H     -3.031514   -0.770958   -0.569569
H      2.923246    1.201451    0.474875
H      4.127557   -0.054227    0.053682
H      4.289604    1.680062   -0.560131
H     -2.804005    1.568249    1.404138
H     -2.546405   -0.173145    1.650464
H      3.220981   -0.517369   -1.984952
H      2.907953    1.226169   -2.314745
H     -0.739608    1.535658   -0.158344
H     -0.379801    0.963790    1.489435
H     -1.014727   -0.877063   -0.859899
H     -1.637032   -2.035137    1.016484
H     -0.693214   -1.146967    2.081005
