52

C     -3.311934    2.830053   -0.794744
C      2.247022   -1.305753   -0.489680
C      3.744939    1.126126   -0.518989
C      4.215164   -0.273729    1.359178
C     -2.688242    1.454377   -0.521060
C     -1.229767   -2.395793   -3.231930
C     -1.783215   -1.021472    3.870419
C     -0.356384   -1.340171   -3.375079
C     -1.855768   -2.548397   -2.016791
C     -2.038083    0.251719    3.410975
C     -1.083285   -1.844449    3.015253
C     -0.124607   -0.473662   -2.332390
C     -1.612650   -1.666383   -0.973738
C     -1.620004    0.703582    2.153188
C     -0.649596   -1.439661    1.760894
C      0.944609    0.787182    0.164045
C      1.971522   -0.203135    0.476958
C     -0.741587   -0.600127   -1.090249
C     -0.927538   -0.134113    1.324804
C     -1.235769    1.674504   -0.308898
C     -0.482659    0.354411   -0.010229
N      3.243302    0.517734    0.668102
O     -0.731075    2.060782   -1.584809
H     -4.359560    2.669271   -1.133886
H     -2.779163    3.279200   -1.646325
H     -3.251375    3.423924    0.132016
H      3.128894   -1.929734   -0.154193
H      1.436277   -2.043854   -0.598410
H      2.547212   -0.946655   -1.516602
H      3.162959    0.965784   -1.425264
H      3.803335    2.245983   -0.374114
H      4.823130    0.843244   -0.701123
H      5.161201   -0.410917    0.793352
H      3.855530   -1.280631    1.636651
H      4.508811    0.293573    2.287482
H     -2.874791    0.920830   -1.510534
H     -3.232125    0.863432    0.204293
H     -1.438646   -3.097015   -4.024095
H     -2.112510   -1.355766    4.844067
H      0.137351   -1.226734   -4.346876
H     -2.551751   -3.359513   -1.847039
H     -2.590670    0.953849    4.044765
H     -0.877556   -2.846375    3.366181
H      0.573034    0.347183   -2.487270
H     -2.149860   -1.852940   -0.070289
H     -1.850468    1.708383    1.873975
H     -0.109171   -2.105487    1.122049
H      0.976775    1.626292    0.932904
H      1.299812    1.342030   -0.768074
H      1.823745   -0.702123    1.481756
H     -0.919893    2.445930    0.368562
H     -0.034920    2.715211   -1.439190
