41

C     -2.734220   -2.604053   -0.675319
C     -3.491314    0.722727    0.762705
C     -3.758060   -0.527446   -0.034014
C     -0.364336   -1.929750    0.401076
C     -2.004506    2.695018    0.356114
C      2.070686   -2.229047    0.061402
C      2.529020    0.455072   -0.199217
C      5.628495   -1.509715   -0.239584
C      0.978131    4.353394   -0.680247
C     -2.175669    1.332939    0.496147
C      0.984832   -1.360301    0.167083
C      1.241704   -0.015104    0.032658
C     -1.465191   -0.974624    0.581827
C      3.331829   -1.749569   -0.166877
C      3.607337   -0.416698   -0.303807
C     -0.728908    3.152107    0.110990
C     -1.110100    0.447637    0.395679
C      0.142855    0.948897    0.150095
C      0.370188    2.292024    0.002797
N     -2.556125   -1.211701   -0.348086
O      4.554686   -2.429894   -0.307046
O      4.970529   -0.279409   -0.523836
O     -0.306905    4.464905   -0.065532
O      1.435760    3.103191   -0.237244
H     -3.833573   -2.754631   -0.860383
H     -2.254853   -2.830473   -1.648551
H     -2.468093   -3.302371    0.115669
H     -4.323997    1.453239    0.701285
H     -3.472778    0.400846    1.844933
H     -4.531780   -1.166422    0.440904
H     -4.223983   -0.188530   -0.996813
H     -0.229436   -2.573762    1.326507
H     -0.629865   -2.632728   -0.440609
H     -2.850083    3.369915    0.438050
H      1.874009   -3.296584    0.167395
H      2.789890    1.486136   -0.312052
H      6.427116   -1.730005   -0.947238
H      5.955207   -1.496252    0.827199
H      1.582862    5.181099   -0.257472
H      0.880611    4.421542   -1.775195
H     -1.841971   -1.071620    1.638607
