38

C      1.521287   -1.486600    1.017174
C      3.745989   -0.410178    1.770981
C      1.552903   -0.613304   -2.860189
C      1.561139    0.183067   -1.728859
C      0.442898   -1.310309   -3.253091
C      1.921432    0.892035    0.795237
C     -2.525717    0.135996    0.413765
C     -2.719065   -1.343460   -1.590445
C      2.366992   -0.282209    1.173432
C     -1.984459   -0.503409   -0.789334
C      0.395631    0.260500   -0.987176
C     -0.714543   -1.228647   -2.509811
C      0.591643    1.167071    0.194711
C     -1.732769    1.364762    0.813056
C     -0.738044   -0.436104   -1.366736
C     -2.430058    1.971452    1.978387
N     -1.947949   -1.776523   -2.624635
N     -0.417366    0.961092    1.211230
O     -1.858189    2.071004    3.116944
O     -3.723571    2.462507    1.915530
H      1.732266   -2.054479    0.087248
H      0.461848   -1.220850    1.146724
H      1.770128   -2.188870    1.857472
H      4.229367    0.588009    1.777985
H      3.654174   -0.814589    2.787264
H      4.346040   -1.077766    1.143407
H      2.448723   -0.703145   -3.473435
H      2.425740    0.738911   -1.404175
H      0.404043   -1.945119   -4.137437
H      2.588231    1.749854    0.934187
H     -3.569949    0.455194    0.183246
H     -2.566006   -0.533469    1.289323
H     -3.761058   -1.618540   -1.419680
H      0.566233    2.223729   -0.175231
H     -1.725580    2.105167   -0.018449
H     -2.251268   -2.429193   -3.391446
H     -0.073288    1.409703    2.084077
H     -3.987828    3.236710    2.533453
