37

C     -5.596449    1.916032   -0.119291
C      4.975566    1.745169   -0.103108
C      3.808249    1.984616    0.584962
C      4.980366    0.730503   -1.036708
C      2.663964    1.243386    0.363322
C      3.829617    0.002193   -1.243876
C     -1.994371   -0.124464   -0.519453
C     -3.078009   -0.980543    0.089094
C      2.650444    0.229382   -0.562288
C     -0.699433   -0.858479   -0.663108
C     -4.328061   -0.173912    0.195245
C     -0.142332   -1.354614    0.645349
C      1.291871   -1.606838    0.240469
C      1.495144   -0.616156   -0.872774
O     -5.393639   -0.642349    0.669641
O     -0.199773   -0.325408    1.576476
O      1.342122   -2.882759   -0.312413
O     -4.384902    1.160030   -0.230739
O      0.295786    0.088704   -1.004314
H     -5.771768    2.422702   -1.094014
H     -6.454480    1.292709    0.147008
H     -5.392237    2.714156    0.617632
H      5.877866    2.316521    0.059611
H      3.793716    2.779514    1.320682
H      5.895985    0.511143   -1.605377
H      1.777033    1.455243    0.912723
H      3.861212   -0.802253   -1.995209
H     -1.843082    0.786455    0.054167
H     -2.334112    0.138070   -1.544454
H     -2.773673   -1.399233    1.081012
H     -3.301431   -1.852597   -0.556691
H     -0.691620   -1.634578   -1.434751
H     -0.644159   -2.275248    1.001000
H      2.001071   -1.474906    1.074787
H      1.647255   -1.117875   -1.856527
H      0.590280   -0.253059    2.138339
H      2.245984   -3.141256   -0.617601
