35

C     -2.378941    3.259341    0.058256
C     -2.113659    2.430096    1.125766
C     -2.087099    2.811625   -1.223143
C     -1.263582   -3.025342   -0.051948
C      0.223363   -3.179195    0.036460
C     -1.568844    1.177989    0.934310
C     -1.540023    1.556556   -1.427154
C     -1.703300   -1.589136    0.065900
C      0.889325   -2.074365    0.819598
C      3.660914    1.230365   -0.952191
C     -1.285459    0.748927   -0.339985
C     -0.691778   -0.626564   -0.489812
C      0.596942   -0.710863    0.283446
C      2.489352    0.775721   -0.162539
O      4.266772    2.338653   -0.397810
O      2.154692    1.395835    0.890130
O      1.710984   -0.312043   -0.504397
H     -2.805994    4.231399    0.257968
H     -2.327787    2.740712    2.160424
H     -2.301695    3.473261   -2.038153
H     -1.735471   -3.612654    0.758402
H     -1.607206   -3.471888   -1.028564
H      0.450851   -4.127960    0.564437
H      0.663511   -3.243477   -0.978932
H     -1.373644    0.549876    1.814694
H     -1.309330    1.203199   -2.442987
H     -1.913876   -1.302853    1.128263
H     -2.645008   -1.477795   -0.505168
H      1.978388   -2.316891    0.850519
H      0.541533   -2.187540    1.887342
H      4.408619    0.398330   -0.905973
H      3.436649    1.391305   -2.012381
H     -0.539935   -0.781857   -1.571147
H      0.478722   -0.023590    1.171685
H      5.242012    2.350825   -0.491805
