27

C      4.124917   -0.067777   -1.390412
C     -0.041883   -0.324612   -0.470912
C      1.440480    0.880124    1.134026
C      3.075931   -0.230586   -0.330780
C      0.186896    0.218115    0.709653
C     -1.324630   -0.983503   -0.844706
C     -0.922968    0.137082    1.668812
C     -2.524936   -0.426161   -0.165843
C     -2.292941    0.273027    1.121884
O      2.777348   -1.376652    0.108853
O     -1.410596   -0.940896   -2.235817
O     -0.685856   -0.042391    2.910106
O     -3.151760    0.474405   -1.051173
O     -3.169027   -0.209762    2.097576
O      2.432855    0.889939    0.165660
H      4.294722   -1.072041   -1.850187
H      5.076764    0.239205   -0.893082
H      3.813638    0.621408   -2.182513
H      0.778290   -0.250194   -1.199890
H      1.777042    0.285031    2.039415
H      1.286915    1.901690    1.540557
H     -1.285633   -2.083985   -0.589169
H     -3.317443   -1.216885    0.001543
H     -2.522221    1.378643    1.026133
H     -1.774409   -0.083471   -2.570879
H     -3.633861   -0.074644   -1.729554
H     -3.007634    0.205464    2.980699
