39

C     -4.008193    1.414859   -0.391820
C      3.609135   -0.648600    0.231936
C      4.324573    0.492346   -0.048758
C     -1.757982    1.426258    0.536634
C     -2.736412   -0.668542   -0.183475
C      0.505918   -1.506588    1.449498
C      0.571643   -1.936793   -1.030919
C     -2.624459    0.788010   -0.512056
C      1.361064   -1.828575    0.283468
C      2.251112   -0.646314    0.025935
C     -0.737133   -0.734826    1.200895
C     -0.488866    0.684358    0.750706
C     -1.398308   -1.294293   -0.053049
C      3.628167    1.586446   -0.526850
C      1.566430    0.451658   -0.451348
C      0.099608    0.403969   -0.646125
N      2.275603    1.553623   -0.719892
N     -0.422780   -0.861822   -1.042857
O      4.358940    2.738303   -0.809133
H     -4.174995    1.575723    0.712675
H     -4.804186    0.729934   -0.743974
H     -3.984380    2.377049   -0.920660
H      4.117588   -1.517647    0.604887
H      5.398678    0.568798    0.087510
H     -1.484692    2.446824    0.138023
H     -2.331404    1.623202    1.458843
H     -3.420420   -1.215504   -0.880335
H     -3.242366   -0.734787    0.819643
H      0.194473   -2.484629    1.920160
H      1.144465   -1.022059    2.224820
H      0.061669   -2.893194   -1.121333
H      1.255120   -1.736761   -1.884504
H     -2.285185    0.946994   -1.535865
H      1.925761   -2.754181    0.390726
H     -1.383825   -0.794473    2.078125
H      0.212313    1.232978    1.380474
H     -1.428748   -2.389036    0.035924
H     -0.157842    1.227102   -1.344222
H      4.009915    3.400190   -1.483710
