83

C     -8.031310    0.225231   -0.975225
C     -3.194122   -4.019695   -4.467313
C     -2.592216    0.861360   -1.887435
C      7.221812   -3.336402    0.722842
C      6.836494   -2.095422   -1.222646
C      8.529449   -3.578707    0.368098
C      8.120373   -2.328782   -1.578769
C     -1.483227    1.196795   -2.453018
C     -4.897424    0.098634   -1.808755
C     -3.379154   -1.248012   -2.984296
C     -3.677567    3.342251    2.069697
C      2.839794   -1.240265   -0.428481
C      0.566256    3.694003    2.662706
C     -3.620485   -0.079976   -2.290493
C      6.332319   -2.617035   -0.008325
C      9.005733   -3.055194   -0.831332
C     -5.940067   -0.809513   -1.971829
C     -4.380928   -2.195576   -3.178393
C     -2.190088    3.602729    2.204665
C      2.265578   -0.159874    0.441781
C     -0.605568    2.227572   -1.739822
C     -5.634789   -1.990412   -2.685009
C      2.538693   -0.149498    1.869690
C     -1.746030    4.293027    0.960289
C      1.496412   -0.634558    2.814651
C      0.187718   -0.763731    2.078861
C     -0.594210    3.451893    0.503152
C      4.955147   -2.384297    0.351118
C      0.123379    0.424957    1.134068
C     -0.215426    2.681842    1.745365
O     -4.241660    2.715357    3.156792
O      1.756874    4.094824    2.143193
O     10.299581   -3.277735   -1.202424
O      0.416201    2.647201   -2.345117
O     -6.669929   -2.931421   -2.861313
O      2.938107    1.169344    2.324000
O     -1.354031    5.587477    1.247323
O      1.821888   -1.805891    3.503944
O     -0.911582   -0.949942    2.862365
O      4.533318   -2.896596    1.459743
O     -7.139033   -0.640066   -1.536417
O     -4.229318   -3.378850   -3.846182
O      4.068950   -1.698721   -0.337963
O      0.948753    0.137960    0.068236
O     -0.829847    2.666012   -0.608834
O     -1.433593    2.457137    2.414014
O      0.537830    1.609768    1.698346
H     -7.526030    1.188066   -0.622332
H     -8.608530   -0.191655   -0.109833
H     -8.813258    0.562411   -1.688215
H     -3.356359   -5.125890   -4.575746
H     -2.248516   -3.939910   -3.909289
H     -3.030290   -3.613938   -5.514305
H     -2.760087    1.388026   -0.905364
H      6.896161   -3.755075    1.691088
H      6.174659   -1.525037   -1.856974
H      9.149322   -4.163166    1.026407
H      8.544064   -1.929182   -2.527930
H     -1.180100    0.795261   -3.354575
H     -5.094447    1.039492   -1.256512
H     -2.417914   -1.453552   -3.389810
H     -3.899874    2.913577    1.099010
H     -4.137844    4.393179    2.050617
H      2.728658   -0.884007   -1.545086
H      2.042784   -2.102973   -0.509369
H      0.617708    3.234780    3.680886
H     -0.084657    4.578642    2.815085
H     -2.045256    4.253322    3.111642
H      2.795251    0.793384    0.045434
H      3.470104   -0.722139    2.117345
H     -2.564010    4.394855    0.217008
H      1.299658    0.189235    3.580639
H      0.211055   -1.669155    1.393401
H      0.249068    4.125047    0.271285
H     -0.920888    0.467613    0.747723
H     -4.166156    1.729351    3.081648
H      1.707000    5.072836    1.910621
H     11.002936   -3.788171   -0.737379
H     -6.527039   -3.793864   -3.361965
H      3.355126    1.619606    1.555403
H     -2.062721    6.220283    1.376583
H      2.735174   -2.058690    3.260122
H     -0.883804   -1.821041    3.277185
