26

C     -1.723350   -2.677233    0.653983
C      2.721787   -1.688052    0.634655
C     -1.425640   -1.245237    0.544856
C     -1.344869   -0.659783   -0.651992
C      0.743733    2.468711   -0.498172
C     -0.140824    3.256265    0.076096
C      1.993198   -0.748795   -0.256481
C     -1.046521    0.776962   -0.771282
C      0.436691    1.049037   -0.732498
C     -1.450545    2.782243    0.505721
O      2.223446   -0.821109   -1.510570
O     -2.231801    3.585199    1.040952
O      1.092156    0.189644    0.167697
O     -1.730724    1.442614    0.279477
H     -2.469217   -2.849147    1.465688
H     -2.076918   -3.053524   -0.319147
H     -0.819787   -3.262620    0.938399
H      2.579454   -1.406513    1.692022
H      3.831785   -1.637483    0.439330
H      2.432141   -2.749188    0.439067
H     -1.262157   -0.620156    1.440305
H     -1.508345   -1.288172   -1.528123
H      1.705497    2.893465   -0.794695
H      0.123488    4.318143    0.237230
H     -1.457601    1.152841   -1.722234
H      0.804927    0.791888   -1.770285
