84

C      6.432568   -0.640349    0.011390
C     -3.434603    1.418815    2.678540
C      1.709069    1.358939   -0.889571
C     -3.746035   -4.061405    0.079702
C     -4.404716    2.798382   -1.695468
C      8.857754    0.710962    1.185522
C     10.137695    0.195952   -0.798538
C     -0.587082    3.113394    1.678416
C     -1.987903    2.965433    1.195304
C      0.234477    2.158067    2.083267
C      4.509781    0.823074   -0.635926
C      3.669915   -0.079998   -0.250254
C      6.736254    1.597841   -0.942042
C      8.188815    1.627431   -0.920686
C     -4.435802    2.405887    0.776191
C      1.370734   -0.828825    0.052675
C     -5.030911   -2.169589   -0.992964
C     -5.909982   -0.895278    0.899063
C     -0.557597   -0.358031   -1.451232
C     -2.573330   -3.619387   -3.138874
C      5.954583    0.635151   -0.541772
C     -3.081670    2.361761    1.512532
C      2.198717    0.105538   -0.345034
C     -4.274753   -3.448856   -1.179308
C     -4.477237    1.762675   -0.552626
C     -6.058394   -2.174804    0.082003
C     -0.075855   -0.635949   -0.041053
C     -3.039395   -3.055191   -2.006235
C     -1.371977   -1.543552   -1.985857
C     -0.237839    0.744027    2.078537
C     -6.378352    0.214869    0.028663
N     -6.021748   -3.306646    0.951003
N     -2.368566   -2.035282   -1.523101
N      8.894413    0.624771   -0.264471
O     -0.188612    0.156562    3.245579
O     -7.612323    0.442921    0.156390
O     -5.504064    0.848480   -0.776412
O     -0.682482    0.128908    0.941499
S     -1.081493   -2.551801   -3.449377
H      6.405422   -0.606164    1.104737
H      7.374745   -0.965103   -0.449414
H      5.725967   -1.491419   -0.340411
H     -4.544263    1.354234    2.813190
H     -3.060446    1.607655    3.649567
H     -3.145129    0.376058    2.403449
H      2.270197    2.173168   -0.323727
H      0.663402    1.616839   -0.714558
H      2.027920    1.545443   -1.951235
H     -3.662202   -3.369571    0.929996
H     -2.701831   -4.472188   -0.064637
H     -4.357878   -4.938914    0.361514
H     -4.918690    2.307776   -2.555987
H     -5.020104    3.686202   -1.445867
H     -3.385154    3.005635   -2.014490
H      8.816254   -0.309001    1.595908
H      7.982535    1.345040    1.438768
H      9.783723    1.237249    1.525032
H     10.392645   -0.820651   -0.404442
H     10.988615    0.889934   -0.612767
H     10.039691    0.071524   -1.897989
H     -0.105916    4.130505    1.723056
H     -1.890838    3.679849    0.250551
H      1.242301    2.365782    2.434598
H      4.121587    1.737621   -1.037799
H      3.971233   -1.016145    0.172384
H      6.188870    2.488102   -1.342380
H      8.460835    2.663382   -0.507494
H      8.599137    1.728718   -1.998056
H     -4.909740    3.398809    0.772688
H     -5.204804    1.837885    1.372639
H      1.802733   -1.768691    0.465132
H     -4.250291   -1.378018   -0.784475
H     -5.431885   -1.882172   -1.992919
H     -6.484783   -0.982443    1.844181
H     -4.851811   -0.801403    1.190065
H      0.321459   -0.314034   -2.089730
H     -1.259884    0.484274   -1.528821
H     -2.855858   -4.438839   -3.791849
H     -4.902719   -4.150197   -1.745706
H     -3.509159    1.189507   -0.681648
H     -7.070034   -2.176272   -0.423134
H     -0.490823   -1.696349    0.145058
H     -6.590727   -4.077618    0.504407
H     -6.346357   -3.060896    1.907056
