55

C     -3.866489    0.556677   -3.657234
C     -5.642841   -1.374512    0.242848
C     -6.101989    1.043568    0.700797
C      2.526932    1.462645    2.997323
C      8.302051   -0.004066   -1.641784
C      7.918899    0.588219   -0.461761
C      7.339779   -0.623336   -2.391673
C      6.622469    0.580233   -0.015546
C      6.015287   -0.629618   -1.932489
C      4.249946   -0.023464   -0.237559
C      3.253786   -0.569418   -0.846097
C     -0.035972    0.551390    2.302771
C     -3.663143    0.898115   -2.208265
C      5.634885   -0.043938   -0.765105
C      1.874691   -0.745850   -0.667602
C      1.038247    0.292254    1.461450
C     -1.308631    0.122983    2.000336
C      0.866735   -0.401716    0.296685
C     -1.529439   -0.572264    0.851034
C     -2.962113   -0.895448    0.803978
C     -0.462726   -0.843044   -0.008439
C     -3.802077    0.213199    0.152152
C     -3.444049   -0.714127    2.240571
C     -5.125442   -0.095328    0.866097
O     -3.220188    2.019335   -1.852423
O      1.383669   -1.438017   -1.713084
O     -0.776301   -1.525409   -1.102368
O      2.284835    0.748218    1.821932
O     -3.962286   -0.025162   -1.216581
O     -2.526313    0.265088    2.685653
O     -4.729645   -0.239797    2.165550
H     -3.476796    1.377473   -4.270611
H     -3.368471   -0.422633   -3.852765
H     -4.971505    0.485798   -3.853236
H     -5.185955   -2.213991    0.831431
H     -6.750170   -1.425402    0.258490
H     -5.279329   -1.503334   -0.799148
H     -6.847052    0.763397   -0.080792
H     -5.610537    1.986246    0.408996
H     -6.648524    1.144786    1.662542
H      3.541074    1.908317    3.031213
H      2.304601    0.878717    3.926151
H      1.793511    2.318468    3.025328
H      9.351607    0.015998   -1.979065
H      8.664010    1.083333    0.146434
H      7.558304   -1.109916   -3.326918
H      6.323435    1.051461    0.921281
H      5.301012   -1.141459   -2.581077
H      4.072528    0.463884    0.683991
H      3.652005   -1.050051   -1.834246
H      0.166958    1.102397    3.203939
H     -3.211896   -1.869241    0.390166
H     -3.415282    1.199389    0.409141
H     -3.381847   -1.654445    2.808039
H     -0.734250   -1.966602   -1.897107
