84

C      5.553003    1.179428    0.233295
C     -1.077310   -3.625321   -1.252123
C      1.272298   -1.939209    1.266885
C     -3.111184    4.847998    0.479419
C     -3.723478   -2.199718   -2.707935
C      6.204667    0.782804   -3.367068
C      6.715449   -1.548875   -3.552729
C     -2.386933   -3.651407    2.297728
C     -1.584854   -3.767875    1.099591
C     -2.800813   -2.501775    2.792145
C      3.787680   -0.690588    0.321360
C      2.979634   -0.068151    1.144335
C      5.809654   -0.844625   -1.009168
C      7.111785   -0.371597   -1.539449
C     -3.390723   -2.980059   -0.417346
C      0.943692    0.102901    2.484888
C     -2.928137    2.391085    0.096997
C     -3.850029    1.240263   -1.920043
C     -0.795223    0.767663    4.002400
C     -0.557767    4.497539    2.147820
C      5.045824   -0.143363   -0.171000
C     -2.020625   -3.456648   -0.105979
C      1.720589   -0.587685    1.654649
C     -2.182550    3.684295    0.340964
C     -3.460007   -1.751675   -1.260990
C     -3.874111    2.501622   -1.077369
C     -0.323138   -0.354348    3.055322
C     -1.358511    3.502901    1.608209
C     -0.830254    1.999966    3.234048
C     -2.527612   -1.180750    2.235891
C     -4.886237    0.270232   -1.471879
N     -5.239489    2.741401   -0.622181
N     -1.388867    2.371405    2.231224
N      7.095501   -0.288140   -2.966788
O     -3.573202   -0.497303    1.897600
O     -6.092238    0.603643   -1.588015
O     -4.588040   -0.949711   -0.946423
O     -1.300795   -0.612882    2.045160
S      0.121536    3.586109    3.637232
H      4.866157    1.789245    0.814981
H      5.791312    1.776379   -0.690330
H      6.550237    1.056628    0.761826
H     -1.543565   -4.322734   -1.975151
H     -0.092377   -4.040721   -0.945514
H     -0.965495   -2.646741   -1.756108
H      2.104638   -2.644878    1.042916
H      0.634235   -1.880928    0.356343
H      0.664939   -2.328697    2.129444
H     -4.068400    4.563226    0.998841
H     -3.389418    5.256103   -0.519986
H     -2.609327    5.694467    1.011060
H     -4.620045   -2.847918   -2.663466
H     -2.898062   -2.756987   -3.138650
H     -3.952928   -1.265295   -3.271165
H      5.241937    0.790634   -2.824067
H      6.094014    0.850540   -4.459709
H      6.727100    1.736016   -3.065833
H      7.519505   -1.830934   -4.260494
H      6.683312   -2.343495   -2.776319
H      5.752243   -1.484888   -4.103813
H     -2.662903   -4.569818    2.875380
H     -0.550733   -4.165952    1.178109
H     -3.426417   -2.571796    3.719258
H      3.477271   -1.684962   -0.008769
H      3.254482    0.916520    1.485072
H      5.398720   -1.823210   -1.288642
H      7.379955    0.608847   -1.120587
H      7.911987   -1.076881   -1.168686
H     -3.866205   -3.863790   -0.961341
H     -4.002197   -2.931992    0.521136
H      1.327721    1.089617    2.729363
H     -2.161518    1.612636   -0.108575
H     -3.487949    2.085261    1.021536
H     -2.825107    0.775065   -1.865340
H     -4.051953    1.568796   -2.976477
H     -1.759332    0.551428    4.453243
H     -0.022682    0.836901    4.788868
H     -0.322574    5.450917    1.917609
H     -1.527496    3.855479   -0.535460
H     -2.540540   -1.133820   -1.197425
H     -3.544882    3.338855   -1.687352
H     -0.173844   -1.299336    3.654392
H     -5.337743    2.513888    0.398073
H     -5.485256    3.738778   -0.818868
