48

C     -2.148580   -3.739907    0.243194
C      4.438699   -2.206035   -2.291497
C      3.793867    3.078018   -0.820274
C      0.801847    3.402736    1.882160
C     -3.961090   -0.722940    0.755893
C     -3.440895   -2.055879    1.204101
C     -0.178312   -2.018654   -0.503897
C     -3.115731    1.560390    1.117571
C      2.042938   -1.357755   -1.203843
C      1.693691    1.280373   -0.459073
C     -2.882298    0.277423    0.704393
C      0.822448   -0.956338   -0.655021
C      0.692221    0.366105   -0.297905
C     -1.551661   -1.516564   -0.197014
C     -2.077700    2.463190    1.059658
C      3.073397   -0.463911   -1.378704
C      2.907047    0.845266   -1.011512
C     -1.636728   -0.119676    0.233260
C     -0.609116    0.811753    0.184420
C     -0.805502    2.098335    0.592987
N     -2.133110   -2.401191    0.793740
O     -2.315405    3.775395    1.481411
O      4.303772   -0.846587   -1.925419
O      3.965814    1.725909   -1.199581
O      0.107602    3.115549    0.615212
H     -1.429749   -3.889072   -0.568894
H     -3.161389   -3.964887   -0.198329
H     -1.958042   -4.456444    1.065290
H      5.442945   -2.454187   -2.637618
H      3.638424   -2.468503   -3.013339
H      4.199587   -2.808193   -1.366712
H      2.894534    3.524107   -1.336699
H      4.639169    3.710334   -1.089838
H      3.583462    3.133758    0.270186
H      0.122570    3.896379    2.573721
H      1.582883    4.133158    1.585248
H      1.220554    2.451836    2.212561
H     -4.421253   -0.767948   -0.253003
H     -4.709129   -0.390355    1.500647
H     -4.215009   -2.819755    0.909127
H     -3.464451   -2.077532    2.332299
H      0.152292   -2.832634    0.178353
H     -0.231256   -2.531629   -1.511449
H     -4.079885    1.895636    1.487300
H      2.208075   -2.401903   -1.510019
H      1.662554    2.311238   -0.253946
H     -2.230210   -1.596746   -1.109250
H     -3.233889    4.008337    1.810106
