47

C     -6.718676    1.399082    1.200325
C     -6.227885    0.652958   -0.003370
C     -4.727380    0.672285   -0.138495
C     -4.031306    0.055159    1.035819
C     -2.510664    0.076555    0.902641
C      5.947012   -0.541090   -0.941298
C      6.494377    0.800303    0.889785
C      1.223174   -1.551017   -1.878692
C      6.907961    0.067881   -0.180888
C      4.596225   -0.396285   -0.603438
C      2.160845   -0.923972   -1.096603
C     -2.045085   -0.664679   -0.293522
C      5.135737    0.961192    1.251007
C     -0.107660   -1.444313   -1.590635
C      4.169193    0.344852    0.480733
C      1.720026   -0.187861   -0.018202
C     -0.594656   -0.716015   -0.518290
C      3.580881   -1.050749   -1.419127
C      2.737492    0.465592    0.795826
C      0.356679   -0.069530    0.289387
O      8.268635   -0.059277   -0.494515
O     -2.629429   -1.942717   -0.336487
O      4.818551    1.708035    2.332297
O     -1.033065   -2.090211   -2.400422
O      3.947663   -1.740654   -2.425360
O      2.357740    1.139793    1.780980
O     -0.097891    0.648661    1.343488
H     -7.711899    1.827507    0.950746
H     -6.906817    0.707627    2.071803
H     -6.068535    2.243968    1.486290
H     -6.641944    1.138081   -0.907120
H     -6.638097   -0.362198    0.032677
H     -4.499387    0.134528   -1.080757
H     -4.357064    1.709368   -0.259431
H     -4.404458   -0.983908    1.142196
H     -4.254067    0.562875    1.989505
H     -2.084841   -0.351394    1.818875
H     -2.259479    1.168552    0.853945
H      6.229907   -1.135669   -1.805204
H      7.222805    1.290931    1.507710
H      1.595229   -2.133980   -2.735049
H     -2.495560   -0.133886   -1.190855
H      8.994296    0.364643    0.029590
H     -3.036825   -2.145851   -1.200831
H      4.003556    1.939853    2.739063
H     -0.696378   -2.621987   -3.181476
H      0.311065    1.166962    2.028034
