47

C      6.396334    1.226775    0.959721
C      5.120605    0.827345    0.153946
C      5.089688   -0.649505    0.011566
C      4.049439   -1.251027   -0.811831
C      2.602588   -1.068711   -0.575093
C     -5.757797    0.795245    0.605567
C     -6.251013   -1.427345    1.246933
C     -1.122905    2.117751   -0.627396
C     -6.678365   -0.139131    1.015056
C     -4.419279    0.497572    0.416033
C     -2.017539    1.154940   -0.216029
C      2.101892    0.288433   -0.812631
C     -4.901931   -1.748064    1.060977
C      0.221218    1.808984   -0.815322
C     -3.998695   -0.793093    0.649839
C     -1.598451   -0.135226    0.017946
C      0.647698    0.506686   -0.579907
C     -3.437167    1.480981   -0.017542
C     -2.570898   -1.130355    0.452500
C     -0.244998   -0.455531   -0.168999
O     -8.027862    0.181080    1.201218
O      2.261185    0.524321   -2.223266
O     -4.481324   -3.033516    1.293500
O      1.059850    2.833714   -1.230603
O     -3.803144    2.666778   -0.236358
O     -2.250716   -2.305280    0.677629
O      0.212755   -1.712014    0.049281
H      6.421662    2.329835    0.902091
H      7.288657    0.809764    0.495655
H      6.259332    0.954233    2.023848
H      4.329920    1.189800    0.881421
H      5.155490    1.405121   -0.762394
H      5.170140   -1.127448    1.040360
H      6.105203   -0.911693   -0.471481
H      4.207692   -2.397169   -0.856293
H      4.210672   -1.000020   -1.921613
H      2.086779   -1.846886   -1.220234
H      2.409579   -1.321254    0.505208
H     -6.086970    1.813335    0.420630
H     -6.941863   -2.189100    1.569079
H     -1.457863    3.133871   -0.810704
H      2.673008    1.061040   -0.346907
H     -8.285184    0.495859    2.130411
H      1.455090    0.189977   -2.685005
H     -5.123427   -3.757168    1.596735
H      2.039521    2.668732   -1.380937
H     -0.118608   -2.562636    0.322848
