47

C     -2.191972   -2.988354    1.051892
C     -3.612235   -1.007982    1.293127
C      0.306612   -2.146720   -1.333220
C     -2.325895    3.154793   -1.690366
C     -2.419271    2.233498   -2.620089
C      3.483917    0.497162    1.583928
C      4.317688    1.596748    1.427515
C     -1.223506    2.791874   -0.756259
C     -1.375139    1.165202   -2.381630
C      3.638222    0.037077   -0.765693
C      2.263590   -1.457514    0.657668
C     -1.591851    0.613563   -0.020145
C     -2.221499   -1.486257    1.080282
C      3.154037   -0.267264    0.491460
C      4.796115    1.893494    0.171141
C      4.462233    1.119944   -0.930439
C     -1.509874   -0.867976   -0.107036
C      0.858477   -0.994289    0.731767
Cl     5.838705    3.268820   -0.044128
Cl     5.093405    1.518133   -2.518280
N     -0.148566   -1.315694   -0.223845
N     -0.961005    1.367754   -1.039772
O      0.513488   -0.260076    1.706932
H     -1.232960   -3.398218    1.441198
H     -2.454827   -3.394883    0.046378
H     -2.991248   -3.401710    1.723895
H     -4.213714   -1.832262    1.783700
H     -4.175993   -0.756806    0.373407
H     -3.670109   -0.187695    2.069484
H      1.224624   -1.653975   -1.757663
H     -0.430800   -2.130353   -2.159664
H      0.637761   -3.146203   -1.037066
H     -2.926834    4.034361   -1.587717
H     -3.110187    2.201715   -3.435130
H      3.114169    0.280177    2.584776
H      4.568056    2.197885    2.300567
H     -0.333426    3.417134   -0.852491
H     -1.631789    2.897306    0.277152
H     -1.766991    0.189694   -2.643042
H     -0.560662    1.433650   -3.121872
H      3.347561   -0.600647   -1.597294
H      2.600147   -1.998597    1.549448
H      2.435976   -2.118735   -0.216555
H     -2.687936    0.955908    0.003194
H     -1.221413    0.999751    0.961201
H     -1.612852   -1.177744    1.984755
H     -2.052230   -1.275689   -1.002703
