53

C      3.946227    2.131562    3.827181
C      3.056155   -0.418582    2.554232
C     -1.996553   -2.453685   -1.841922
C     -3.199542   -1.954006    0.168708
C      0.689632   -0.774255   -1.830264
C      3.282999    2.596537    2.837141
C      0.452646   -0.779978    1.678829
C     -0.564453   -1.562531    0.830349
C      1.967737    2.718147    0.818741
C     -2.475232    1.066476   -1.636524
C      2.575582    0.520602    1.476904
C      2.615427    1.936132    1.758580
C      1.391332   -0.046489    0.769008
C      1.256670    2.136685   -0.305759
C     -1.207735   -0.688048   -0.194825
C     -3.177691   -0.262443   -1.572195
C     -1.013637    0.931186   -2.016149
C      0.522974    0.931644   -0.001611
C     -2.304850   -1.326220   -0.929770
C     -0.209717    0.144578   -1.025361
O      1.329003    2.690306   -1.393033
O     -3.563848   -0.713850   -2.839559
O     -1.011924    0.395391   -3.308265
H      4.158251    1.140256    4.081314
H      4.385986    2.874552    4.561922
H      2.577377   -0.333396    3.516335
H      2.851099   -1.459821    2.103796
H      4.142857   -0.420066    2.624770
H     -1.656897   -2.216608   -2.845968
H     -1.318847   -3.158239   -1.322285
H     -2.955755   -3.041229   -1.977530
H     -3.222349   -1.270677    1.039608
H     -4.234564   -1.975958   -0.231445
H     -2.820391   -2.951345    0.425002
H      0.372900   -0.855088   -2.908120
H      1.743928   -0.379217   -1.899985
H      0.667283   -1.816133   -1.467385
H      3.208356    3.756741    2.807075
H     -0.167210   -0.013269    2.195566
H      0.909858   -1.497740    2.358190
H     -1.354586   -1.865885    1.550770
H     -0.137853   -2.492116    0.429717
H      2.032307    3.809697    0.947609
H     -2.948667    1.689144   -2.428377
H     -2.557755    1.613827   -0.679140
H      3.476662    0.420364    0.713033
H      1.795553   -0.845725    0.078367
H     -1.711192    0.126935    0.424564
H     -4.126604   -0.084679   -1.019769
H     -0.680471    1.966098   -2.193295
H     -0.263008    1.259925    0.772069
H     -4.117933   -0.024092   -3.296704
H     -0.409536    0.824582   -3.927212
