35

C     -4.247531    0.633608    1.373604
C      3.774521   -0.952314   -0.972198
C      4.649832    0.100711    0.931963
C     -1.081499   -0.985054   -1.908903
C     -4.064538    0.404695   -0.108025
C      4.864910   -0.620970   -0.214137
C      2.486659   -0.593077   -0.633741
C     -0.026781   -0.610722   -1.112940
C      3.348439    0.490570    1.315694
C     -2.366672   -0.644372   -1.564475
C     -2.660292    0.074320   -0.426623
C      2.254008    0.139782    0.527886
C     -0.271302    0.116845    0.041581
C      1.348748   -0.973914   -1.459330
C     -1.589362    0.460244    0.383198
C      0.869887    0.496705    0.867645
O     -4.425201    1.612548   -0.747353
O      6.169819   -0.972074   -0.537699
O      3.192458    1.207619    2.458580
O     -3.432068   -1.022129   -2.370795
O      1.606334   -1.645036   -2.508641
O     -1.856151    1.169078    1.503540
O      0.675018    1.148100    1.901256
H     -4.087962    1.698090    1.612996
H     -3.591591   -0.008265    1.966889
H     -5.330272    0.362272    1.603122
H      3.939745   -1.534764   -1.872042
H      5.457602    0.418065    1.585951
H     -0.864441   -1.567672   -2.824242
H     -4.721290   -0.412885   -0.434221
H     -4.445953    2.324411   -0.059448
H      6.561595   -1.851792   -0.197675
H      2.429288    1.553251    2.896009
H     -3.236025   -1.548201   -3.213894
H     -1.329933    1.532326    2.196469
