40

C     -4.234135   -1.928269    0.041056
C      6.157670   -0.770859   -0.300757
C      3.826252    1.732394   -0.494055
C     -1.777740   -1.526942   -0.175571
C     -0.732530   -0.468251   -0.125963
C      2.477977    2.202064   -0.176406
C      4.084097    0.469166   -0.773295
C     -0.989425    0.850219    0.165445
C      1.357391    1.263220   -0.159901
C      1.605424   -0.057415   -0.448173
C      0.562941   -0.931725   -0.433462
C      2.976132   -0.469843   -0.758983
C      0.079418    1.734743    0.146590
C     -2.357830    1.303574    0.506631
C     -3.170460    0.115063    0.961606
C     -3.150293   -0.890748   -0.142325
O      2.235234    3.413212    0.090556
O      0.821415   -2.257698   -0.723720
O      3.190401   -1.672040   -1.019417
O     -0.102079    3.062844    0.421015
O     -2.350351    2.158039    1.642932
O     -4.451498    0.474649    1.352768
O     -3.348582   -0.222528   -1.369791
O      5.366685    0.106883   -1.059724
H     -3.779244   -2.825609    0.526358
H     -4.715094   -2.206641   -0.913672
H     -4.981337   -1.491954    0.743050
H      6.315154   -0.418219    0.743257
H      5.819351   -1.810163   -0.320641
H      7.181155   -0.767357   -0.767804
H      4.615237    2.496876   -0.486415
H     -1.662630   -2.012331   -1.194556
H     -1.638517   -2.277757    0.610620
H     -2.820896    1.830047   -0.351226
H     -2.597818   -0.331359    1.824375
H      0.056554   -2.910242   -0.706504
H     -0.928171    3.547827    0.635216
H     -1.664282    1.754561    2.241916
H     -4.510472    0.359469    2.334212
H     -2.765102   -0.626901   -2.085239
