40

C     -4.468774    1.209927    0.151334
C      5.784303    1.299917    0.998770
C      4.013601   -0.817989   -0.859074
C     -1.996428    1.193157    0.585848
C     -0.782723    0.413459    0.158699
C      2.743453   -1.545670   -0.971251
C      4.064052    0.412323   -0.419447
C     -0.839433   -0.851893   -0.292887
C      1.527159   -0.872069   -0.582277
C      1.578752    0.444391   -0.111579
C      0.434010    1.102555    0.263275
C      2.861677    1.122183   -0.018998
C      0.322245   -1.542609   -0.681546
C     -2.113080   -1.626947   -0.421858
C     -3.156193   -0.920550    0.381146
C     -3.163251    0.530523   -0.117226
O      2.740874   -2.732364   -1.400789
O      0.411210    2.393724    0.733698
O      2.999599    2.314548    0.396452
O      0.178245   -2.821245   -1.127527
O     -1.934958   -2.954621   -0.034291
O     -4.410641   -1.487412    0.292610
O     -2.845121    0.549419   -1.493179
O      5.301502    1.076991   -0.326204
H     -4.307282    2.156155    0.743074
H     -4.880212    1.555619   -0.825205
H     -5.224928    0.565803    0.609580
H      6.745307    1.818263    0.994902
H      5.898514    0.295048    1.494835
H      5.010256    1.895412    1.525033
H      4.927492   -1.332133   -1.154237
H     -2.062923    1.055083    1.694476
H     -1.945094    2.238216    0.290815
H     -2.404628   -1.582663   -1.491138
H     -2.846598   -0.942900    1.448141
H      1.092711    3.046392    0.888880
H      0.753931   -3.511870   -1.446290
H     -2.556718   -3.254137    0.653667
H     -4.907130   -1.378540    1.140274
H     -2.542778    1.486507   -1.670510
