53

C      5.685307    0.686319    1.314950
C      3.448193    1.810790   -0.247143
C     -3.574686    0.956262    1.218006
C     -3.141457    1.563627   -1.063880
C     -0.412380   -0.765365   -1.773961
C      4.842740   -0.268684    1.404244
C      0.766570    1.654324    0.554816
C     -0.674376    1.698488    0.019860
C      2.863706   -1.597057    1.070089
C     -2.852610   -2.037199   -0.008115
C      2.868578    0.420089   -0.161820
C      3.561851   -0.431729    0.782520
C      1.388829    0.479902   -0.143675
C      1.557539   -1.869307    0.505298
C     -1.390609    0.391091    0.245750
C     -3.487254   -0.776943   -0.526142
C     -1.388640   -2.079686   -0.002520
C      0.676391   -0.738337    0.408015
C     -2.834801    0.472169   -0.050638
C     -0.639344   -0.818618   -0.291438
O      1.293937   -3.014136    0.156430
O     -3.713201   -0.817652   -1.904850
O     -1.026504   -3.000965   -1.020671
H      6.660918    0.597276    1.914329
H      5.682065    1.603116    0.769723
H      3.561470    2.304213    0.727144
H      4.337298    1.795938   -0.898434
H      2.720435    2.458305   -0.886473
H     -4.496846    1.483397    0.964190
H     -2.869910    1.638857    1.732959
H     -3.733497    0.101717    1.910809
H     -3.259708    2.552265   -0.563728
H     -2.457865    1.623191   -1.899901
H     -4.159059    1.338625   -1.489597
H     -0.590344    0.187171   -2.260545
H      0.612346   -1.171784   -2.026795
H     -1.089162   -1.494325   -2.319048
H      5.181566   -1.104021    2.085594
H      1.209001    2.620989    0.363840
H      0.650736    1.423362    1.643010
H     -1.253094    2.472261    0.543547
H     -0.590560    1.981726   -1.037281
H      3.379453   -2.289546    1.733156
H     -3.224545   -2.229395    1.044790
H     -3.339972   -2.867931   -0.589109
H      3.190683   -0.037157   -1.194620
H      1.089598    0.627423   -1.235597
H     -1.298079    0.244457    1.373006
H     -4.540186   -0.782319   -0.113802
H     -0.990857   -2.450987    0.987294
H      0.418100   -0.467899    1.488595
H     -3.181506   -0.207680   -2.424151
H     -1.436259   -3.868627   -0.828030
