30

C      1.786953   -0.545884   -1.065372
C      1.626874   -0.237598    1.301576
C      3.128538   -0.246861   -0.997144
C      2.974826    0.061091    1.358027
C     -0.412518   -0.856760    0.061196
C      1.018354   -0.545753    0.079351
C      3.731340    0.058755    0.216059
C     -2.730324   -0.020115   -0.150122
C     -3.203258   -0.460185    1.166718
C     -1.002193    1.000421   -1.481210
C     -1.269435    0.384196   -0.143371
O      5.103345    0.354600    0.217076
O     -2.952413   -0.928033   -1.156471
O     -3.057811    0.282946    2.169711
O     -3.819557   -1.682944    1.378630
O     -1.165738    0.273863   -2.481966
O     -0.595880    2.316177   -1.542662
O     -1.049966    1.295648    0.868029
H      1.330488   -0.782027   -2.016634
H      1.077617   -0.221738    2.228526
H      3.731271   -0.246257   -1.889948
H      3.479757    0.303984    2.283825
H     -0.692474   -1.267988    1.050020
H     -0.678814   -1.611400   -0.700682
H     -3.294957    0.915595   -0.433314
H      5.416614    1.311717    0.094330
H     -3.026141   -1.859855   -0.840156
H     -3.860277   -2.053966    2.323808
H     -0.865682    2.839500   -2.388642
H     -0.728542    2.168871    0.490816
