32

C     -2.624963    0.397816   -1.426944
C     -2.926084    0.361152    0.994425
C      1.337764    1.396095    0.885510
C      2.822747    0.723469   -0.983751
C      0.787139   -1.415477    1.441008
C     -0.598684   -1.031639    1.040559
C      1.044194   -1.452855   -0.964415
C     -1.951992    0.694724   -0.115392
C      1.748807   -1.068727    0.346615
C     -0.721665   -0.150307    0.042957
C      0.423649   -0.053123   -0.898578
C      1.654951    0.347892   -0.125592
H     -3.737579    0.375136   -1.344815
H     -2.264494   -0.588805   -1.793305
H     -2.369369    1.187487   -2.160772
H     -2.417120    0.406838    1.999352
H     -3.792123    1.029272    0.966397
H     -3.256096   -0.710044    0.893620
H      2.246241    1.807698    1.371842
H      0.886305    2.263443    0.324437
H      0.566707    1.090566    1.619703
H      2.576044    1.511902   -1.726757
H      3.252290   -0.149880   -1.523206
H      3.632910    1.095633   -0.310699
H      1.034256   -0.982738    2.414491
H      0.782674   -2.530746    1.531408
H     -1.470995   -1.458430    1.547454
H      1.750525   -1.575214   -1.800276
H      0.280898   -2.223359   -0.838503
H     -1.695186    1.764651   -0.002254
H      2.752064   -1.487555    0.443871
H      0.246187    0.425128   -1.848392
