30

C      2.148223    1.208223    1.101200
C      3.269406   -0.690966    0.134192
C     -0.669737    1.491686   -0.551006
C      0.642192   -0.793479   -1.417103
C      2.007055    0.072418    0.474016
C     -0.506774    0.251839    0.296610
C      0.758233   -0.506404    0.058981
C     -1.961272    2.143634   -0.200567
C     -1.475890   -0.767113   -0.388136
C     -1.790793   -1.878382    0.519237
N     -0.752334   -1.170750   -1.576553
O     -2.263941    3.202787   -0.816449
O     -2.803435    1.611360    0.765237
O     -1.432449   -3.046722    0.224119
O     -2.478308   -1.639734    1.692557
H      3.125055    1.586634    1.364087
H      1.297648    1.795204    1.390760
H      3.961921   -0.670512    0.995379
H      3.053417   -1.751648   -0.077571
H      3.772976   -0.239291   -0.723178
H      0.162650    2.180536   -0.566819
H     -0.814808    1.193066   -1.640679
H      0.874330    0.115496   -2.004752
H      1.310843   -1.641327   -1.678733
H     -0.771154    0.379304    1.331298
H      0.632128   -1.486683    0.616235
H     -2.397712   -0.226035   -0.658627
H     -1.121830   -0.693248   -2.415300
H     -3.353908    2.292484    1.305978
H     -2.421732   -2.322376    2.445587
