21

C     -1.046756    0.849207    0.671497
C     -0.633658    1.208878   -0.751796
C     -0.971800   -1.067811   -0.669184
C      0.603908   -0.980028    1.025147
C     -0.852304   -0.645487    0.807209
C      0.087724   -0.061023   -1.166741
C      1.224148   -0.384118   -0.247118
N      2.009644    0.732110    0.151727
H     -0.474943    1.430020    1.414895
H     -2.125345    1.049661    0.749633
H     -0.028127    2.102394   -0.814160
H     -1.522998    1.287124   -1.422533
H     -0.649120   -2.095999   -0.823278
H     -1.962651   -0.827602   -1.056273
H      0.698313   -2.079260    0.919925
H      1.030969   -0.564272    1.931130
H     -1.547396   -1.145521    1.451195
H      0.283284   -0.146445   -2.221439
H      1.896713   -1.120018   -0.743247
H      1.900398    1.589925   -0.390470
H      2.079997    0.868265    1.183880
