92

C      2.321753    1.853057    1.670478
C     -3.936973   -3.694055    0.366460
C      1.338707    1.115662   -1.153617
C     -2.408062   -1.639416   -1.306268
C      8.347394    0.384428    2.655932
C      7.613338    1.591890   -4.512971
C     -5.091976    2.493101   -2.478581
C     -9.974958   -0.468853    1.921013
C     10.877637    0.698429   -1.239659
C     -9.249628    3.343264   -0.773290
C      1.332190    0.760479    1.787782
C     -2.621903   -3.572003    0.988823
C      0.610254   -1.161539   -1.340826
C     -0.170687   -2.268809   -0.718999
C      6.719469    0.307273    0.249552
C      6.485402    0.697056   -2.084259
C     -5.681380    0.718941   -0.245488
C     -7.314518   -0.234397    1.161282
C      2.815885   -1.030483    0.806637
C     -2.485211   -1.147641    1.713570
C      5.967283    0.274297   -0.900623
C     -5.980590   -0.121377    0.801888
C      1.513419   -0.365430    0.740441
C     -1.889616   -2.292002    1.006390
C      8.035128    0.771069    0.249277
C      7.805112    1.164141   -2.089401
C     -6.652167    1.429164   -0.925803
C     -8.284272    0.470852    0.489264
C      8.565224    1.199873   -0.944975
C     -8.000445    1.316687   -0.563621
C      4.577026   -0.231424   -0.800952
C     -4.940109   -0.860714    1.529470
N      0.872894   -0.051763   -0.479253
N     -1.478199   -1.921050   -0.304026
O      3.917975   -0.350851   -1.866207
O     -5.216539   -1.710249    2.401938
O      8.817261    0.811636    1.402759
O      8.330888    1.599591   -3.314419
O     -6.384270    2.279481   -1.987663
O     -9.645877    0.376311    0.839484
O      9.863214    1.661082   -0.970816
O     -8.963743    2.039783   -1.260016
O      3.977699   -0.568324    0.339849
O     -3.630067   -0.600835    1.234545
H      2.512455    2.237821    2.722708
H      3.314084    1.576037    1.301170
H      1.863358    2.735340    1.166207
H     -4.309436   -2.869104   -0.211243
H     -4.696110   -4.048029    1.142331
H     -3.981830   -4.591531   -0.362901
H      1.409894    0.881266   -2.247768
H      0.540412    1.896196   -1.087210
H      2.269284    1.552466   -0.843451
H     -1.826123   -1.068429   -2.125571
H     -2.715008   -2.556174   -1.859183
H     -3.277469   -1.027120   -1.068155
H      9.168892    0.553611    3.400086
H      8.033361   -0.690170    2.666790
H      7.464869    0.954284    3.004216
H      6.681762    2.199657   -4.398358
H      7.360137    0.595245   -4.884933
H      8.219839    2.118133   -5.301825
H     -4.443285    1.580250   -2.409349
H     -5.105001    2.736899   -3.579803
H     -4.587565    3.353663   -1.967351
H    -11.073490   -0.492346    2.103883
H     -9.634715   -1.508202    1.793391
H     -9.550142   -0.101128    2.895548
H     10.451204   -0.231779   -1.626797
H     11.512061    1.110547   -2.053880
H     11.471914    0.519627   -0.315137
H     -9.345797    3.290785    0.337669
H     -8.389734    4.038653   -0.970892
H    -10.127607    3.795219   -1.257651
H      0.310234    1.117821    1.695506
H      1.472312    0.255317    2.777082
H     -2.688068   -3.902391    2.085853
H     -1.907685   -4.401171    0.598574
H      1.583518   -1.636269   -1.675880
H      0.152852   -0.806535   -2.280165
H      0.387931   -2.712926    0.123076
H     -0.277614   -3.134805   -1.448699
H      6.274694   -0.042388    1.178448
H      5.908701    0.683208   -2.997709
H     -4.650994    0.822057   -0.531893
H     -7.555279   -0.893069    1.981565
H      2.985406   -1.218997    1.940621
H      2.644855   -2.148106    0.499359
H     -2.718200   -1.527612    2.775490
H     -1.684901   -0.370643    1.950138
H      0.796775   -1.141771    1.205003
H     -0.948710   -2.549743    1.638150
