46

C      3.961402    2.666625    1.423591
C     -1.061712   -4.244153    0.200607
C     -2.216639   -3.789777    0.768453
C      4.144589    1.683331   -1.399133
C     -2.483862    1.945033    1.492554
C      3.910959    1.053753   -2.592477
C     -1.596823    0.737905    1.817726
C      1.079376   -0.054827   -0.595018
C     -2.377403    0.652511   -0.443439
C     -2.409335    2.077959   -0.003908
C      0.863123   -1.335831   -0.596495
C     -0.099173   -3.344785   -0.220765
C      2.298327    0.501804   -1.164654
C     -2.433462   -2.421502    0.926787
C      3.161918    1.361218   -0.493644
C     -0.337780   -1.978249   -0.052839
C     -1.494927   -1.496687    0.515468
C      1.742377   -2.418981   -1.056635
N     -3.572719    2.711283   -0.572542
N      2.781269    0.339902   -2.428115
N      1.169407   -3.547671   -0.830823
N     -1.802712   -0.102890    0.655974
N     -3.615656   -1.972306    1.557819
O      2.986492   -2.239051   -1.635319
O     -4.127669   -2.829942    2.545197
O     -4.252940   -0.955281    1.377705
O      3.023716    1.779647    0.813259
H      4.945598    2.478615    0.919357
H      4.083544    2.426071    2.498092
H      3.669021    3.715859    1.329229
H     -0.854379   -5.308524    0.058735
H     -2.967513   -4.475951    1.098249
H      4.978849    2.343967   -1.181102
H     -3.525944    1.707785    1.780509
H     -2.109997    2.866096    1.966699
H      4.512184    1.118931   -3.481493
H     -0.588113    1.121700    1.945595
H     -1.925428    0.275773    2.756299
H      0.375944    0.618694   -0.172169
H     -1.704427    0.532234   -1.355456
H     -3.381448    0.347654   -0.725911
H     -1.471799    2.598268   -0.330512
H     -3.711136    2.335870   -1.537264
H     -3.515530    3.753470   -0.554583
H      2.336785   -0.232351   -3.171335
H      3.613646   -3.003201   -1.852271
