46

C      3.572177    3.512687   -0.266615
C     -1.202483   -3.203427    2.659749
C     -2.464604   -2.697014    2.450010
C      4.559572    1.033529   -1.356455
C     -2.596503    0.912490   -1.960590
C      4.679495   -0.268896   -1.753734
C     -2.050890   -0.267447   -1.323525
C      1.319196   -0.306707   -0.336560
C     -1.858658    1.332869    0.293638
C     -2.574431    1.951267   -0.881136
C      1.011627   -1.255937    0.523013
C     -0.117139   -2.665892    1.982882
C      2.671028   -0.070127   -0.817940
C     -2.685755   -1.667929    1.584743
C      3.324682    1.174380   -0.776361
C     -0.308014   -1.610822    1.088638
C     -1.571452   -1.126362    0.899038
C      1.914280   -2.195442    1.182556
N     -3.918721    2.391340   -0.512853
N      3.544755   -0.886802   -1.419218
N      1.266448   -2.952755    1.973725
N     -1.797627   -0.055610    0.002207
N     -3.969346   -1.109017    1.339462
O      3.295756   -2.209847    0.939322
O     -4.878308   -1.100059    2.366595
O     -4.340237   -0.627961    0.261030
O      2.815937    2.337122   -0.244920
H      2.942786    4.287797   -0.758414
H      3.743348    3.905623    0.778937
H      4.563244    3.421146   -0.728513
H     -1.037223   -4.015608    3.345215
H     -3.322337   -3.106527    2.970715
H      5.350439    1.752931   -1.513737
H     -3.673984    0.705163   -2.171332
H     -2.060001    1.237617   -2.877947
H      5.519649   -0.762777   -2.253185
H     -1.477968   -0.945959   -1.775639
H     -1.914630   -0.981603   -1.862945
H      0.545139    0.334697   -0.714152
H     -0.867053    1.825586    0.385618
H     -2.495755    1.555464    1.187758
H     -2.032956    2.831884   -1.286660
H     -4.053662    2.452840    0.509055
H     -4.662390    1.831570   -0.962520
H      3.382880   -1.915632   -1.645205
H      3.909691   -2.781843    1.476248
