44

C     -1.384400    0.511639   -1.843595
C     -5.828702    0.385940   -3.206252
C     -5.877382    1.651009   -3.778355
C     -4.773339    0.081980   -2.372773
C      2.546939    0.693323    1.554794
C      1.295237   -1.180363    2.171272
C      1.411866    1.393834    1.258639
C      0.137244   -0.496208    1.880528
C     -4.857809    2.512172   -3.466129
C     -2.868811    0.392663    0.173324
C     -2.265289    1.391123    1.101610
C      3.821896   -1.305040    2.337791
C      2.544826   -0.620223    2.023079
C      0.157010    0.794708    1.421198
C      4.317752   -1.962471    1.068922
C     -3.769459    0.980243   -2.086250
C      5.607366   -2.667115    1.286487
C      6.604002   -0.690469    0.731890
N     -3.836308    2.204705   -2.653115
N      6.662896   -2.034681    1.118583
N     -2.662569    0.628319   -1.221702
O      5.562131   -4.045791    1.681352
O      7.455057    0.183337    0.827694
O     -0.912896    1.567722    1.104843
S      4.957713   -0.546296    0.052785
H     -0.550839    0.920557   -1.262794
H     -1.438311    0.981333   -2.859404
H     -1.153695   -0.577151   -2.030486
H     -6.604223   -0.309576   -3.424975
H     -6.683323    1.933632   -4.436048
H     -4.735379   -0.915310   -1.921691
H      3.523398    1.161137    1.426135
H      1.251092   -2.206816    2.536050
H      1.490771    2.426208    0.894182
H     -0.835194   -0.985086    2.027048
H     -4.912811    3.511398   -3.930924
H     -2.429663   -0.621217    0.382768
H     -3.959600    0.248463    0.399241
H     -2.747194    2.403998    0.906224
H     -2.595569    1.159263    2.165940
H      3.774459   -1.975063    3.199288
H      4.551888   -0.491478    2.583670
H      3.582849   -2.544705    0.527386
H      6.426375   -4.581990    1.651771
