44

C     -2.873058    2.409101   -0.097932
C      4.491113   -2.346827    0.107985
C     -3.759062   -1.435571    1.057222
C     -3.782937   -1.438681   -1.406742
C     -0.622463   -2.200285   -0.023751
C     -1.907546   -2.386915   -0.140386
C     -0.849756    3.905028    0.118767
C      3.866738   -0.086552   -0.609495
C     -1.413896    2.631553    0.035492
C      3.391752   -1.494110   -0.480980
C     -0.122419   -0.822508    0.056110
C      3.158252    0.834879    0.387616
C      0.519134    4.021072    0.241422
C     -0.547271    1.558266    0.082536
C      1.676376    0.675712    0.253180
C      1.238600   -0.640843    0.179733
C     -1.002940    0.246113    0.007795
C      0.812795    1.751433    0.206482
C     -2.869103   -1.275578   -0.194616
O      3.500036    0.370669    1.656914
O      1.034226    5.161125    0.316859
O      2.182640   -1.648669    0.235434
O      1.314648    2.977924    0.283059
O     -2.343281    0.009487   -0.115193
H     -3.163276    1.968398   -1.071885
H     -3.322230    1.923859    0.779793
H     -3.340287    3.440175   -0.118073
H      4.198328   -3.414417   -0.079636
H      4.627179   -2.181142    1.181124
H      5.398632   -2.178695   -0.500656
H     -3.093741   -1.315829    1.932819
H     -4.197592   -2.433769    1.037605
H     -4.524389   -0.653805    1.098430
H     -3.231045   -1.757514   -2.303131
H     -4.590788   -2.145218   -1.122558
H     -4.242298   -0.433758   -1.575872
H      0.078528   -3.033689    0.015157
H     -2.264242   -3.411514   -0.198460
H     -1.497873    4.746665    0.084642
H      4.950683    0.005835   -0.542252
H      3.575007    0.312181   -1.608863
H      3.250394   -1.895913   -1.528666
H      3.493039    1.865819    0.295647
H      2.803395   -0.183494    2.067324
