55

C      3.512733   -3.297994    2.221599
C     -4.249258   -2.719592   -1.465209
C     -4.165850    3.379751    2.417602
C     -6.931478    1.046894   -0.596324
C      6.202689   -0.744420   -1.143338
C      5.066287   -0.151282   -1.448693
C      7.474756   -0.374178   -1.869591
C      2.665139    0.224029   -1.187440
C      3.688080   -1.389672    0.203026
C     -2.776793   -0.734687   -0.178843
C     -2.730152    1.246516    1.082685
C      0.204179    2.068817   -0.926805
C      3.819880   -0.461298   -0.791594
C     -2.045418    0.229690    0.446383
C      1.429588   -0.000681   -0.621348
C      0.061314    0.575267   -0.841630
C      2.464187   -1.650806    0.803421
C     -4.166917   -0.682713   -0.167652
C     -4.122206    1.306149    1.098718
C     -0.574473    0.260622    0.489126
C      1.331656   -0.944375    0.379658
C     -4.862213    0.328931    0.465190
O      8.337687    0.094206   -0.854460
O      1.023089    2.500451   -1.956840
O      2.354744   -2.597348    1.810737
O     -4.938479   -1.660289   -0.801893
O     -4.803078    2.319057    1.732588
O     -6.256770    0.359148    0.462462
O      0.007727   -0.991155    0.784738
H      3.834775   -3.998206    1.431564
H      4.344875   -2.636686    2.490769
H      3.246770   -3.915032    3.123025
H     -3.496885   -2.247380   -2.138401
H     -4.918580   -3.340335   -2.061651
H     -3.724042   -3.374091   -0.739465
H     -4.926188    4.034575    2.869417
H     -3.545796    2.965811    3.241020
H     -3.559939    3.935446    1.701883
H     -7.904573    1.443116   -0.280436
H     -6.972536    0.351938   -1.447042
H     -6.324607    1.922456   -0.936928
H      6.226608   -1.488262   -0.381654
H      5.090697    0.607939   -2.239324
H      7.246655    0.449269   -2.550279
H      7.903600   -1.269207   -2.358482
H      2.764088    0.955819   -1.971189
H      4.523390   -1.949503    0.555657
H     -2.272143   -1.526840   -0.674993
H     -2.179038    2.040583    1.596694
H      0.660707    2.453395    0.018791
H     -0.796329    2.574818   -0.986913
H     -0.432325    0.128211   -1.697797
H     -0.193051    0.986048    1.227645
H      7.865651    0.640451   -0.200307
H      0.517564    2.716629   -2.788455
