37

C      2.243677   -1.876517    1.589897
C      1.507034    2.146598   -1.170207
C     -3.923807   -0.169190   -0.602508
C     -3.898528    1.087793    0.236817
C      4.621186    0.158651   -0.424151
C      4.109903   -0.805063    0.391512
C      3.773695    1.138031   -0.945972
C     -2.534133   -0.704627   -0.770825
C     -3.316849    0.666756    1.578308
C      2.750080   -0.814796    0.704055
C      2.420550    1.129911   -0.636101
C     -1.711779   -0.738811    0.451357
C      1.923765    0.149129    0.188716
C     -0.265675   -0.767744    0.111652
N     -1.948171    0.273645    1.421313
N      0.542975    0.151241    0.497379
O      0.222675   -1.813832   -0.641024
H      2.918051   -1.967632    2.456089
H      2.174148   -2.838271    1.029868
H      1.240358   -1.598890    1.987227
H      1.526979    3.044489   -0.508890
H      1.794169    2.486465   -2.191998
H      0.472069    1.754428   -1.168895
H     -4.508641   -0.931230   -0.009595
H     -4.449141   -0.011147   -1.544774
H     -3.188731    1.801261   -0.203007
H     -4.913411    1.482295    0.349983
H      5.672748    0.159837   -0.661233
H      4.752920   -1.568108    0.801935
H      4.178285    1.900913   -1.591627
H     -2.634375   -1.727127   -1.226539
H     -2.027930   -0.085108   -1.540999
H     -3.414603    1.451555    2.326544
H     -3.899852   -0.219712    1.903800
H     -1.909653   -1.729632    0.963079
H     -1.369011    1.123616    1.149835
H      1.069021   -1.739177   -1.223924
