40

C     -3.547811   -1.817650   -0.977631
C     -2.953634   -0.731346    1.036652
C      4.232500   -1.790116   -0.169299
C      3.478932   -2.218507    0.910826
C      3.682889   -0.910110   -1.086031
C      0.538436    3.808741    0.708587
C      1.483216    2.988316    1.322269
C      2.199231   -1.765956    1.058232
C      2.383617   -0.470970   -0.906406
C     -0.489534    3.240313   -0.007752
C      1.357494    1.613060    1.190168
C     -1.745013    1.372838   -0.930213
C     -0.626988   -0.881031   -0.750471
C      1.609472   -0.889904    0.171696
C     -0.618132    1.858225   -0.141045
C     -1.864160   -0.104988   -1.047674
C      0.323591    1.086298    0.470921
C      0.220418   -0.381492    0.344458
N     -3.049721   -0.596579   -0.380081
H     -2.897059   -2.636706   -0.582449
H     -3.418543   -1.763915   -2.069672
H     -4.607083   -1.957311   -0.741795
H     -2.320247   -1.582856    1.382045
H     -2.747614    0.217923    1.554467
H     -3.995438   -1.013339    1.376979
H      5.231072   -2.140839   -0.283209
H      3.914960   -2.912291    1.632756
H      4.285401   -0.567642   -1.944361
H      0.624558    4.892883    0.806139
H      2.297766    3.398534    1.888589
H      1.633241   -2.126930    1.924656
H      1.973671    0.223518   -1.648651
H     -1.219900    3.901284   -0.480209
H      2.119850    0.999680    1.681383
H     -2.685543    1.804907   -0.486379
H     -1.662479    1.888636   -1.937221
H     -0.005392   -1.058410   -1.650958
H     -0.975424   -1.921888   -0.453798
H     -2.075533   -0.316556   -2.143042
H     -0.085069   -0.737823    1.357526
