27

C      3.500919    0.123337   -0.693630
C     -2.151770    1.808969    0.094634
C     -0.628053   -1.147048   -1.402763
C     -1.530365   -1.225427    0.854945
C      0.745626   -0.825684   -0.964239
C     -0.519482   -0.416561    1.642563
C      2.362730    0.662207    0.084645
C     -1.637247   -0.485867   -0.457399
C      1.039822    0.139645   -0.109254
C     -0.099946    0.691832    0.682031
N     -1.169200    0.845864   -0.253987
O      2.590815    1.579638    0.909122
H      3.162428   -0.154254   -1.704376
H      4.316570    0.870633   -0.805784
H      3.890054   -0.807766   -0.201700
H     -1.637809    2.654654    0.607684
H     -2.593551    2.239986   -0.827656
H     -2.938963    1.456839    0.783193
H     -0.800616   -0.796536   -2.444407
H     -0.776841   -2.250982   -1.320610
H     -2.490808   -1.343966    1.373638
H     -1.135110   -2.263570    0.697841
H      1.584265   -1.396504   -1.347666
H      0.368186   -1.021203    1.929058
H     -0.973998    0.006854    2.555340
H     -2.639885   -0.546852   -0.911578
H      0.162228    1.601762    1.230354
