27

C      3.146478   -0.436160   -0.039032
C     -0.524325    1.508805   -1.440153
C     -1.522589    0.769041    1.158403
C     -1.915196   -1.441392    0.043110
C     -0.069128    0.993267    1.297758
C     -0.440789   -1.728901    0.224585
C      2.243638    0.374257    0.811047
C     -1.881592    0.071672   -0.128233
C      0.806675    0.303411    0.584820
C      0.244363   -0.565912   -0.480511
N     -0.816451    0.160094   -1.120069
O      2.747558    1.099051    1.702750
H      4.187761   -0.371007    0.275736
H      3.068262   -0.058288   -1.078817
H      2.790681   -1.489474   -0.025561
H      0.335351    1.954587   -0.935609
H     -1.434721    2.123018   -1.174038
H     -0.455574    1.609198   -2.562574
H     -1.875753    0.203576    2.046248
H     -2.028991    1.764114    1.153974
H     -2.528012   -1.760714    0.886475
H     -2.215007   -1.861610   -0.932091
H      0.319743    1.725717    1.984395
H     -0.155109   -2.695307   -0.238311
H     -0.237036   -1.754167    1.296877
H     -2.793695    0.461155   -0.598058
H      1.003458   -0.958032   -1.170173
