76

C     -5.596885   -3.781194   -0.875628
C      7.323530    1.735910   -3.260566
C      5.820298   -1.546390    2.976508
C      9.208159   -1.342694   -0.251827
C     -2.771947   -4.247630    0.660605
C     -5.890661   -2.542742   -0.076852
C     -7.453095    4.541602   -0.782822
C     -6.370274    4.539128   -1.627272
C     -7.380060    3.963797    0.476274
C     -5.209424    3.942298   -1.178763
C     -6.211654    3.366444    0.920075
C      2.053922    0.096606    0.185080
C      1.574384    1.192644    1.097999
C     -5.333968   -1.322736   -0.668994
C      5.480063    0.816399   -1.407606
C      4.973736   -0.275357    0.667471
C     -1.728230    1.026490    1.021528
C     -0.723361   -1.108637    0.828318
C     -3.871079    2.742643    0.509637
C     -5.138110    3.364456    0.081984
C      4.529387    0.361947   -0.489168
C     -0.649008    0.175050    1.282494
C      3.108699    0.554928   -0.739710
C      0.503552    0.679234    2.028787
C      6.830712    0.644881   -1.187572
C      6.319222   -0.451594    0.896468
C     -2.799592    0.564683    0.337435
C     -1.854817   -1.579512    0.111387
C      7.219285    0.009388   -0.030485
C     -2.908174   -0.775866   -0.152656
O      2.745429    1.143070   -1.798425
O      1.005642   -0.208406    2.971746
O     -0.322271   -3.736670   -0.281580
O     -2.103621   -3.351106   -1.834512
O      7.777441    1.089215   -2.087445
O      6.762252   -1.078449    2.033313
O      8.563207   -0.170808    0.206270
O     -4.040647   -1.024399   -0.814051
O     -3.866833    1.396407    0.075779
S     -1.764420   -3.246061   -0.368240
H     -5.540198   -4.685134   -0.206930
H     -6.475878   -3.970015   -1.569880
H     -4.724565   -3.683838   -1.545598
H      6.647887    2.576811   -2.953930
H      6.675792    1.011702   -3.801869
H      8.151543    2.095569   -3.892950
H      6.331921   -1.817093    3.940405
H      5.064746   -0.792161    3.251502
H      5.251001   -2.425349    2.587216
H      8.502229   -2.079570   -0.685870
H      9.949353   -1.118695   -1.073653
H      9.728280   -1.875708    0.589250
H     -2.169858   -4.714601    1.499009
H     -3.575982   -3.708961    1.184611
H     -3.215487   -5.076073    0.050350
H     -7.035981   -2.469123   -0.073605
H     -5.650398   -2.668837    1.009297
H     -8.372162    4.992410   -1.089178
H     -6.427845    4.986899   -2.601906
H     -8.251540    3.994522    1.092860
H     -4.342797    3.915142   -1.796714
H     -6.167007    2.920713    1.901198
H      2.314570   -0.781619    0.790087
H      1.180521   -0.237266   -0.454309
H      2.439406    1.591866    1.682121
H      1.158354    2.029472    0.494161
H     -5.901788   -0.442138   -0.138680
H     -5.810503   -1.180277   -1.730737
H      5.137193    1.309061   -2.302653
H      4.252057   -0.631820    1.388059
H     -1.686678    2.046894    1.374085
H      0.107473   -1.757029    1.035798
H     -3.786981    2.709903    1.619647
H     -3.001184    3.284092    0.091118
H      0.157861    1.570107    2.647688
H      1.275853   -1.076825    2.578201
