65

C     -2.613596    2.250919    2.677095
C     -4.223051    0.436068    2.888630
C     -4.344420    0.993186   -1.709633
C     -3.196543    2.844697   -0.636323
C     -3.403558   -1.934356   -0.911163
C     -2.743630   -2.225037    1.412454
C      5.400517    2.794316    0.720104
C      4.686111    2.198085    1.724765
C      5.493847    2.202747   -0.507482
C      3.997903   -3.328993   -0.100318
C      2.720396   -3.414515   -0.904834
C      4.054966    0.974932    1.472056
C      4.867113    0.997595   -0.742684
C      4.538255   -1.934310   -0.296645
C      2.538659   -2.230507   -1.810567
C     -0.754975    1.101758   -0.938032
C     -2.844869    0.810277    2.373415
C     -3.862356    1.540524   -0.376720
C     -3.579083   -1.374428    0.482755
C      4.139061    0.365512    0.241277
C      3.458333   -0.916448    0.032841
C      2.499686   -0.908450   -1.117113
C      0.653598    0.658075   -1.315978
O      1.351241    1.314470   -2.123696
O     -1.265214    0.218096   -0.058317
O      1.210704   -0.485297   -0.780649
Si    -2.794023    0.381791    0.560187
H     -3.441788    2.904639    2.349135
H     -1.666251    2.659856    2.296325
H     -2.551791    2.428664    3.797155
H     -4.954856    0.676155    2.090879
H     -4.319976   -0.632399    3.112199
H     -4.467905    1.095954    3.744329
H     -3.580390    0.379354   -2.193084
H     -4.541035    1.853366   -2.374150
H     -5.317398    0.466881   -1.600636
H     -2.553148    3.199423    0.185259
H     -4.043855    3.615479   -0.643470
H     -2.663382    2.900579   -1.610883
H     -2.472224   -1.559697   -1.333081
H     -3.298359   -3.051819   -0.783132
H     -4.302799   -1.805334   -1.547551
H     -1.846361   -2.571354    0.821733
H     -2.333709   -1.691155    2.275839
H     -3.282337   -3.155763    1.697175
H      5.887045    3.749930    0.935186
H      4.631478    2.691223    2.685255
H      6.072953    2.720340   -1.267117
H      4.729689   -4.077259   -0.454796
H      3.780848   -3.432895    0.996271
H      2.782885   -4.310223   -1.567181
H      1.893749   -3.586555   -0.216508
H      3.505541    0.555262    2.308520
H      4.938249    0.533975   -1.698209
H      5.462771   -1.752132    0.285987
H      4.816558   -1.827167   -1.362785
H      1.533214   -2.363604   -2.291278
H      3.296407   -2.300121   -2.623589
H     -0.640466    2.143547   -0.624497
H     -1.302915    1.000046   -1.920042
H     -2.121422    0.199159    2.963872
H     -4.816968    1.698876    0.218618
H     -4.631288   -1.308816    0.788847
H      2.920642   -1.219803    0.971804
H      2.913520   -0.157319   -1.853107
