56

C      7.545000    0.699534   -0.453575
C      6.696965    1.680302    0.004304
C      7.032332   -0.516604   -0.819373
C      5.344632    1.445354    0.094917
C      5.684220   -0.789347   -0.742723
C     -5.496814   -0.074919   -0.916658
C     -5.694086   -0.507757    1.454950
C     -6.749863    0.498698   -0.863147
C     -6.947584    0.066581    1.506529
C      3.050868   -0.032900    1.307611
C      2.599039    0.993732   -0.923240
C     -1.768885    0.297461   -1.681856
C     -2.423791    0.792750   -0.421150
C      1.615169   -0.558961    1.454682
C      1.215927    1.080413   -0.256074
C     -3.626891   -1.204533    0.237487
C     -1.348032   -0.786605    0.941554
C     -4.975782   -0.578008    0.256137
C      4.846076    0.207275   -0.280611
C      3.408511   -0.055029   -0.187381
C     -7.462939    0.568170    0.327763
C     -0.235477   -0.883886   -0.061060
C     -0.640277   -0.634544   -1.472292
F     -8.695392    1.138201    0.357058
N     -2.578676   -0.284289    0.478563
N      0.926875   -0.165546    0.272587
O     -0.969078   -1.848692   -2.132520
H      8.618264    0.890655   -0.524884
H      7.088142    2.646037    0.295204
H      7.711050   -1.278604   -1.176175
H      4.684512    2.242649    0.463876
H      5.308734   -1.766592   -1.041870
H     -4.959206   -0.118117   -1.856457
H     -5.273041   -0.910383    2.385243
H     -7.180011    0.902806   -1.777672
H     -7.523930    0.133192    2.419923
H      3.071864    0.994894    1.675427
H      3.754276   -0.720830    1.810938
H      3.072254    1.974435   -0.931511
H      2.455729    0.651472   -1.967030
H     -1.480399    1.208746   -2.266078
H     -2.598400   -0.158553   -2.298137
H     -3.358727    1.309699   -0.702459
H     -1.747822    1.546585    0.035913
H      1.144374   -0.212979    2.374064
H      1.704177   -1.667893    1.449000
H      1.362022    1.857515    0.547022
H      0.530216    1.445196   -1.001839
H     -3.557612   -1.766213   -0.717534
H     -3.583265   -1.985803    1.044549
H     -1.550621   -1.752862    1.481812
H     -0.983516   -0.102539    1.765305
H      3.186110   -1.074321   -0.548231
H      0.081122   -1.977452   -0.030346
H      0.236087   -0.258033   -2.061314
H     -0.564429   -2.599556   -1.591547
