55

C     -5.303441    2.329878    1.579138
C     -2.726610   -3.080357   -0.905839
C     -1.893060   -1.359035   -2.408209
C      7.457481   -1.872416    0.158799
C      8.263669   -0.773939    0.252972
C      6.092616   -1.721910    0.096176
C      7.716885    0.476980    0.285223
C     -5.172858    0.033133    0.593518
C      3.339444    0.727278    0.073085
C      4.048369   -0.370414    0.056659
C     -4.423557   -0.785084   -0.450224
C     -3.100570    1.243063    1.088665
C      1.173789    1.840491    0.015753
C      1.140245   -0.503736   -0.098454
C     -4.570788    1.392075    0.663687
C      1.874058    0.638477   -0.006127
C      5.489577   -0.448107    0.126648
C     -2.428275    0.680649   -0.161394
C     -2.946695   -0.739471   -0.205002
C      6.315559    0.632348    0.220968
C     -0.221846    1.849870   -0.053683
C     -0.240760   -0.494119   -0.166896
C     -0.964919    0.677867   -0.143043
C     -2.168970   -1.700478   -0.990103
O      5.826211    1.925632    0.258203
O     -0.791309    3.099956   -0.037979
O     -0.880579   -1.753636   -0.272243
H     -6.260985    1.861291    1.881831
H     -5.561042    3.270683    1.050465
H     -4.727051    2.579172    2.489806
H     -2.878047   -3.451348    0.110918
H     -3.680067   -3.093626   -1.509419
H     -2.034568   -3.755354   -1.477214
H     -2.589247   -1.869824   -3.130132
H     -1.872520   -0.276650   -2.626343
H     -0.874154   -1.744993   -2.671000
H      7.882002   -2.863811    0.132795
H      9.340713   -0.864310    0.303773
H      5.433715   -2.581054    0.021068
H      8.328380    1.362593    0.359165
H     -5.071680   -0.439684    1.606183
H     -6.229817    0.018957    0.329014
H      3.815486    1.684789    0.143379
H      3.504140   -1.340730   -0.017720
H     -4.741701   -0.456398   -1.437715
H     -4.748439   -1.834862   -0.300109
H     -2.731094    2.154598    1.486936
H     -3.054733    0.403887    1.854890
H      1.726809    2.769029    0.087469
H      1.646698   -1.466058   -0.118800
H     -4.550097    1.820179   -0.361610
H     -2.797636    1.292553   -1.004829
H     -2.840514   -1.085917    0.886843
H      6.421422    2.720411    0.326966
H     -1.759641    3.241481   -0.149012
