55

C     -5.230247    2.604590    0.332280
C     -1.775496   -2.825122    0.082646
C     -2.608386   -2.547257   -2.208804
C      7.474227    1.161948    0.982877
C      8.267539    0.573183    0.044591
C      6.098670    0.990425    0.911829
C      7.719808   -0.178297   -0.956561
C     -5.133276    0.305998   -0.440575
C      3.197268    0.600881    0.722455
C      4.043066    0.076172   -0.131225
C     -4.407125   -1.047350   -0.420448
C     -3.096682    1.441709    0.434021
C      0.954834    1.057430    1.654928
C      1.145357   -0.297061   -0.297769
C     -4.604696    1.263640    0.572471
C      1.738734    0.442522    0.680626
C      5.492782    0.249749   -0.066610
C     -2.512432    0.041285    0.611232
C     -2.950394   -0.705588   -0.614667
C      6.318188   -0.335356   -1.003735
C     -0.405057    0.899593    1.600275
C     -0.245831   -0.459913   -0.355064
C     -1.032885    0.145095    0.602543
C     -2.072559   -1.835273   -0.987833
O      5.823361   -1.098456   -2.028084
O     -1.165373    1.531642    2.601898
O     -0.820779   -1.236710   -1.380809
H     -4.705567    3.338745    1.011137
H     -6.298957    2.654341    0.615450
H     -5.033421    2.966713   -0.693590
H     -2.609960   -3.513029    0.303599
H     -0.932661   -3.467853   -0.266501
H     -1.434018   -2.352626    1.016817
H     -1.800156   -3.228561   -2.558218
H     -3.468856   -3.171432   -1.905712
H     -2.838429   -1.827147   -3.001645
H      7.910275    1.758519    1.777496
H      9.346427    0.721109    0.119393
H      5.526502    1.487762    1.692073
H      8.336843   -0.658365   -1.717886
H     -4.913496    0.730198   -1.460594
H     -6.206162    0.166124   -0.302366
H      3.633048    1.210109    1.535091
H      3.627446   -0.519960   -0.927741
H     -4.605963   -1.587502    0.506072
H     -4.763205   -1.583099   -1.317862
H     -2.916845    1.705006   -0.646489
H     -2.723252    2.177756    1.122490
H      1.463584    1.633368    2.411875
H      1.718926   -0.799383   -1.086333
H     -4.829903    0.929736    1.597496
H     -2.890071   -0.416413    1.549721
H     -2.941923    0.028622   -1.476576
H      4.864857   -1.280251   -2.166291
H     -0.727679    2.078031    3.326608
