42

C     -1.545627   -3.157483    0.805725
C     -2.877050   -2.814738    0.958370
C     -3.689618    2.768032    0.463542
C     -0.626714   -2.256421    0.302510
C     -3.262293   -1.545940    0.593341
C     -3.858384    1.263430    0.633466
C      1.985283   -0.059380    0.701795
C      1.981248   -0.974563   -1.516233
C      3.320175   -0.429785    0.767491
C      3.297327   -1.324649   -1.414534
C     -2.258388    2.964736   -0.029631
C     -0.441179    1.361508    0.023558
C      6.732862   -0.078281   -0.647732
C      1.307773   -0.339401   -0.464475
C      3.978992   -1.054116   -0.268354
C     -1.035347   -1.003905   -0.052030
C     -2.354247   -0.633766    0.088352
C     -0.113007    0.029363   -0.599647
C     -2.767927    0.710222   -0.300208
F      6.497359    0.971923    0.234956
N     -1.778559    1.669580   -0.182006
S      5.707189   -1.487303   -0.070538
H     -1.237916   -4.158443    1.092652
H     -3.617349   -3.498806    1.349412
H     -3.886593    3.316366    1.402015
H     -4.434801    3.116364   -0.271136
H      0.409258   -2.532124    0.185792
H     -4.285305   -1.239215    0.695788
H     -3.537842    0.984747    1.655516
H     -4.848615    0.916076    0.346857
H      1.536063    0.431117    1.569389
H      1.380867   -1.161117   -2.398313
H      3.892814   -0.223961    1.678587
H      3.789927   -1.813940   -2.245679
H     -2.338111    3.455093   -1.042353
H     -1.686772    3.648377    0.613046
H      0.216086    2.143030   -0.407903
H     -0.217678    1.303975    1.105098
H      7.791794   -0.378947   -0.657354
H      6.399663    0.185930   -1.680192
H     -0.293840    0.170271   -1.706805
H     -3.231518    0.756144   -1.312137
