49

C     -2.495861   -2.826495   -0.680429
C      0.617315    3.912668    0.202899
C      4.874034   -2.434923    0.319547
C      4.850779   -2.774385   -1.013818
C     -0.305150    3.216431    1.175330
C      1.013292    2.871972   -0.834094
C     -3.777754    0.252980   -0.230073
C     -3.859450   -1.097229    0.442565
C      3.913948   -1.685660    0.881531
C      3.791631   -2.299276   -1.764761
C      0.068319    1.716307    1.290524
C     -0.235476    2.022648   -1.072887
C     -2.408484    0.348676   -0.880070
C      1.865655   -0.403423    0.663928
C     -1.360289   -1.051889    0.663439
C     -2.565306   -1.877198    0.501799
C      2.830016   -1.179782    0.166911
C      2.829977   -1.516877   -1.124081
C      0.868618    0.037172   -0.192349
C     -0.255339    0.991829    0.030855
N     -1.492166    0.291852    0.192952
S      1.355410   -0.694179   -1.738526
H     -2.539738   -3.881194   -0.361634
H     -1.502139   -2.719874   -1.197822
H     -3.338930   -2.666573   -1.380878
H      1.511242    4.348947    0.708236
H      0.009100    4.681365   -0.281685
H      5.705004   -2.810684    0.909857
H      5.641305   -3.388490   -1.419513
H     -1.371165    3.354137    0.980358
H     -0.081877    3.615695    2.219166
H      1.233102    3.476905   -1.765769
H      1.864399    2.287670   -0.509881
H     -3.795164    1.015043    0.581353
H     -4.585583    0.456393   -0.940002
H     -4.312292   -0.995030    1.458217
H     -4.578153   -1.707473   -0.154128
H      4.043120   -1.488400    1.963051
H      3.720862   -2.541650   -2.803620
H      1.170088    1.773202    1.480271
H     -0.378184    1.285714    2.182794
H     -0.218753    1.602608   -2.089576
H     -1.100130    2.722374   -0.999254
H     -2.398190    1.270560   -1.483322
H     -2.344164   -0.465428   -1.607351
H      1.753792   -0.033873    1.732743
H     -1.011945   -0.974862    1.735742
H     -0.547132   -1.504025    0.047655
H     -2.672194   -2.534277    1.419567
