52

C     -3.622746   -1.223659   -0.943640
C     -3.190796   -0.809107    1.397907
C     -0.668203    1.073576    1.551927
C      0.576314   -0.192787   -2.724629
C     -2.692018    2.269046   -0.008950
C     -0.887597   -1.644091   -0.263587
C     -3.547766    1.077173   -0.224349
C     -1.276823    2.119387   -0.502112
C      0.513159   -1.727661   -0.744396
C      1.738720    0.799138    0.759469
C      4.523162   -1.161208   -0.400939
C      2.907786    0.214565    0.754350
C      5.378242   -1.008310    0.767631
C      3.333165   -0.562899   -0.388605
C     -1.481035   -0.280517   -0.405652
C      0.792505    0.710852   -0.370694
C      3.792775    0.363869    1.945748
C      4.979084   -0.232141    1.934378
C     -2.918427   -0.253898    0.037933
C     -0.639951    0.841740    0.067849
C      1.056627   -0.415158   -1.299688
Cl     3.252329    1.311557    3.317007
O      6.500112   -1.554023    0.793059
O      5.785804   -0.078951    3.054949
O      2.449842   -0.647101   -1.446694
H     -4.694586   -0.942297   -0.915377
H     -3.214860   -1.064636   -1.957256
H     -3.542551   -2.260441   -0.592664
H     -3.903996   -1.691017    1.379229
H     -3.809119   -0.043880    1.956978
H     -2.335663   -1.180473    1.957838
H     -0.339332    2.144000    1.714288
H     -0.166127    0.342456    2.167354
H     -1.729813    1.117855    1.942348
H      1.427836   -0.209277   -3.474195
H     -0.059562   -1.037778   -3.094153
H      0.138406    0.806584   -2.895955
H     -3.134738    3.115004   -0.604497
H     -2.742403    2.641125    1.050807
H     -1.503814   -2.328510   -0.920374
H     -0.974624   -2.083038    0.749174
H     -3.907857    1.124511   -1.294259
H     -4.476140    1.208869    0.378673
H     -0.691532    2.963340   -0.080299
H     -1.305268    2.154768   -1.582404
H      0.659509   -2.502960   -1.534606
H      1.189166   -2.015307    0.087707
H      1.495451    1.374856    1.668607
H      4.797310   -1.726512   -1.267380
H     -1.576222   -0.114412   -1.526950
H      1.015217    1.645420   -0.980681
H      6.731045   -0.427646    3.109429
