38

C     -6.556483    0.792613   -0.648296
C      5.589500    0.829239   -0.728229
C      4.558799    1.720855   -0.621040
C      5.329524   -0.515885   -0.566599
C      3.271186    1.274508   -0.353379
C      4.044978   -0.943260   -0.301109
C     -2.993449   -0.465779   -0.122610
C      2.986014   -0.066935   -0.187575
C     -1.686651    0.190167   -0.520269
C     -4.153735    0.366001   -0.516882
C      1.153149   -0.250035    1.475809
C     -0.261804   -0.768601    1.332365
C      1.667980   -0.593005    0.093177
C     -0.501099   -0.630389   -0.132448
O     -1.706039    0.196863   -1.940557
O     -4.016116    1.483951   -1.113282
O      1.861751   -0.908844    2.468597
O     -1.151898   -0.094872    2.147980
O     -5.454986   -0.029362   -0.256898
O      0.649348   -0.045448   -0.680026
H     -6.179459    1.840436   -0.622240
H     -6.894496    0.499052   -1.642287
H     -7.331778    0.718742    0.134406
H      6.614968    1.114477   -0.935375
H      4.767372    2.762810   -0.747512
H      6.137079   -1.237992   -0.648562
H      2.457169    1.966953   -0.267721
H      3.912036   -2.022712   -0.184893
H     -3.106126   -1.435701   -0.685285
H     -3.012544   -0.745438    0.943674
H     -1.660694    1.235017   -0.208002
H      1.141134    0.846460    1.609744
H     -0.210464   -1.859954    1.584265
H      1.636453   -1.676820   -0.073701
H     -0.605887   -1.624278   -0.621060
H     -1.631739    1.095933   -2.301676
H      2.018810   -0.266519    3.194170
H     -0.681806    0.600012    2.643328
