44

C     -0.324259    3.448860    0.283345
C     -3.551104   -1.771320   -0.319434
C      3.751209   -1.495200   -0.731692
C     -1.579582    1.513465    1.195336
C     -2.309807    0.458822    0.492733
C      1.726274    1.491284   -0.666367
C      2.641511    0.550474    0.026604
C      1.684407   -1.606397    0.546594
C     -0.282828    1.965725    0.687864
C     -2.178845   -1.573751   -0.926226
C      0.277203    1.229067   -0.492214
C     -1.625864   -0.202632   -0.659558
C      0.294464   -0.987925    0.697944
C     -1.279598   -2.550256   -0.260758
C      2.390606   -0.843928   -0.528063
C     -0.108566   -0.224474   -0.512586
O     -1.187450   -3.744452   -0.719339
O     -0.587193   -2.087839    0.837732
O      1.708575   -0.790023   -1.719895
O      0.423151   -0.830318   -1.628383
H     -1.383231    3.656615    0.020997
H      0.277005    3.647854   -0.606403
H     -0.062800    4.084063    1.150310
H     -4.213678   -0.916854   -0.428509
H     -4.029381   -2.615503   -0.897771
H     -3.492856   -2.165850    0.729696
H      4.010713   -2.154944    0.127207
H      3.720557   -2.072667   -1.688840
H      4.544730   -0.739267   -0.819324
H     -1.445777    1.197596    2.275205
H     -2.256626    2.416619    1.295953
H     -2.625590   -0.377445    1.187683
H     -3.301956    0.831164    0.094560
H      1.945532    2.520224   -0.265856
H      2.010033    1.534421   -1.753606
H      2.478185    0.608230    1.115339
H      3.680859    0.857719   -0.166193
H      1.641811   -2.662349    0.253378
H      2.212804   -1.455216    1.495636
H      0.525971    1.932621    1.478880
H     -2.265316   -1.773245   -2.020314
H     -0.235498    1.675460   -1.398938
H     -1.849221    0.410398   -1.575552
H      0.231427   -0.388823    1.625489
