38

C      2.771119   -0.323928   -1.693796
C      4.202170    1.062919   -0.073943
C     -0.671277    3.197847   -0.458124
C      0.197928    2.124954   -0.284619
C     -2.048964    3.039087   -0.413001
C      1.919992    0.442304    0.439474
C     -1.974353   -1.763388    0.395766
C     -3.805227   -0.038715    0.137362
C      2.927963    0.396575   -0.409805
C     -2.486525   -0.414067    0.184782
C     -0.381777    0.904346   -0.066952
C     -2.622949    1.811710   -0.194531
C      0.603182   -0.225372    0.133215
C     -0.756580   -1.940182    1.205893
C     -1.762395    0.741170   -0.021560
C     -0.076080   -3.226721    0.829171
N     -3.850743    1.293703   -0.090219
N      0.165991   -0.883127    1.323431
O      1.161949   -3.229237    0.668106
O     -0.777997   -4.400152    0.657038
H      2.536799   -1.408307   -1.538346
H      1.934399    0.070373   -2.314436
H      3.672862   -0.294078   -2.319459
H      4.257693    1.984212   -0.722038
H      5.087884    0.426022   -0.365425
H      4.282832    1.367056    0.970648
H     -0.249732    4.178705   -0.632447
H      1.268185    2.214448   -0.313814
H     -2.707655    3.886510   -0.550188
H      2.053809    0.978421    1.382611
H     -1.780500   -2.231693   -0.618300
H     -2.820269   -2.397419    0.792248
H     -4.674293   -0.672187    0.256942
H      0.666200   -0.887015   -0.720770
H     -1.113516   -2.152426    2.266816
H     -4.722200    1.860344   -0.176173
H     -0.061172   -0.262281    2.101717
H     -0.366753   -5.230411    0.232725
