45

C     -4.575104   -1.079293    0.721398
C      2.287126    2.501983   -0.520790
C      0.815971    0.297560   -2.047649
C     -2.329870   -1.679918   -0.101494
C     -1.076186   -1.182493   -0.788208
C     -0.646565    1.758684    1.542152
C      2.394026   -1.651822   -0.215143
C      0.503435    2.279169    1.142139
C      3.734339   -2.014867    0.403501
C     -2.550760    0.305566    1.275529
C     -3.281350   -0.530064    0.215327
C     -1.361681    0.910340    0.551107
C     -0.401719   -0.145514    0.086181
C      2.058600   -0.235007   -0.010669
C      0.917752    1.931016   -0.268257
C      0.829406    0.435537   -0.519380
O      3.731263   -1.780743    1.788676
O      2.846560    0.440612    0.623138
O      0.025953    2.605901   -1.113182
H     -5.136262   -0.330433    1.335820
H     -5.196416   -1.331251   -0.187613
H     -4.466540   -2.020613    1.283413
H      2.880924    1.873862   -1.193571
H      2.821578    2.755597    0.418663
H      2.153213    3.472091   -1.040284
H      1.040107   -0.712229   -2.379807
H      1.583435    0.991965   -2.428385
H     -0.161998    0.696156   -2.397719
H     -2.811753   -2.428300   -0.734293
H     -2.018828   -2.123989    0.870657
H     -1.385219   -0.801411   -1.769580
H     -0.391533   -2.049043   -0.855201
H     -1.001340    1.965601    2.533595
H      1.661630   -2.337898    0.306412
H      2.418138   -1.984058   -1.260834
H      1.126494    2.918122    1.769224
H      3.927332   -3.100554    0.285843
H      4.574852   -1.497421   -0.102499
H     -2.203099   -0.373656    2.079566
H     -3.186113    1.122304    1.621747
H     -3.400943    0.081874   -0.698251
H     -1.815026    1.495567   -0.283749
H     -0.081972   -0.699216    1.013631
H      4.693395   -1.612905    2.042556
H      0.454750    2.863192   -1.966561
