35

C      5.820942    0.466691    0.783701
C      4.916067    0.455667    1.812764
C      5.445642    0.028741   -0.476708
C      3.644544    0.014981    1.603422
C      4.168741   -0.413423   -0.685432
C     -3.404880    1.244846   -0.878552
C     -3.396351   -0.505748    0.746710
C     -4.744420    0.997271   -1.180037
C     -4.724120   -0.762880    0.458743
C      1.881948   -0.900892    0.125856
C     -1.293667    0.802597    0.367863
C      3.261399   -0.424235    0.347375
C     -2.720703    0.514764    0.068989
C     -5.392208   -0.022080   -0.492352
C      1.012764    0.216441   -0.280530
C     -0.420661   -0.047953   -0.554149
O     -6.720868   -0.305848   -0.755993
O      1.409656    1.361954   -0.406593
O     -0.735131   -1.392840   -0.371880
H      6.840117    0.808387    0.906595
H      5.239708    0.804514    2.787475
H      6.189288    0.049718   -1.276001
H      2.917289    0.002423    2.416108
H      3.839100   -0.761932   -1.651738
H     -2.859300    2.027155   -1.387130
H     -2.895462   -1.105080    1.500482
H     -5.239492    1.598749   -1.933489
H     -5.268122   -1.552224    0.974466
H      1.870019   -1.740109   -0.617121
H      1.483965   -1.329163    1.076601
H     -1.061101    1.866124    0.229679
H     -1.074489    0.532964    1.404799
H     -0.643559    0.204241   -1.618160
H     -6.903780   -0.989165   -1.479559
H     -0.442874   -1.744655    0.494886
