35

C      4.091445    1.312652   -1.190482
C     -5.139848    0.463406   -1.658283
C      2.758066    1.270537   -1.485537
C      4.695062    0.313586   -0.444870
C     -4.351001   -0.646699   -1.532098
C     -4.775330    1.640526   -1.037133
C      2.015598    0.190843   -1.014880
C      3.914465   -0.744341    0.003544
C     -3.175806   -0.592581   -0.775336
C     -3.608510    1.671115   -0.293473
C      1.788353   -1.965901    0.227020
C     -1.583072    0.651440    0.640117
C      2.565883   -0.822884   -0.273266
C     -2.798288    0.570744   -0.150612
C      1.206540   -1.673707    1.618012
C      0.338556   -0.495987    1.465222
O      2.293694   -1.334669    2.414727
O      0.673801    0.575286    2.033204
O     -0.849035   -0.542385    0.703320
H      4.679213    2.146088   -1.550266
H     -6.056279    0.482623   -2.227960
H      2.293674    2.066043   -2.075333
H      5.738556    0.343206   -0.211962
H     -4.650103   -1.563125   -2.025311
H     -5.398326    2.526838   -1.133582
H      0.966262    0.150388   -1.242697
H      4.403161   -1.500248    0.575379
H     -2.601796   -1.508423   -0.719493
H     -3.358584    2.612923    0.177276
H      2.457975   -2.843585    0.311506
H      0.996548   -2.188717   -0.497688
H     -1.853450    0.912349    1.704927
H     -0.888335    1.471085    0.326393
H      0.670789   -2.555631    2.009446
H      2.540122   -0.392795    2.373647
