37

C      5.740378    0.374130   -0.646756
C      5.007141    1.047417    0.460250
C      3.517215    1.098951    0.260891
C      2.904028   -0.253592    0.146018
C      1.421382   -0.211719   -0.052942
C      0.669608    0.455260    1.042866
C     -0.811917    0.456913    0.760881
C     -1.382347   -0.943671    0.618959
C     -2.845077   -0.871043    0.350424
C     -3.415228   -0.984270   -0.995698
C     -4.762269   -0.624965   -1.370682
C     -5.806278   -0.193066   -0.463615
N     -6.362655    0.961798   -0.620829
O     -3.586976   -0.709612    1.302787
O     -6.230270   -0.990818    0.577699
O     -4.427861   -2.055262   -1.164917
H      5.214699    0.380038   -1.624167
H      6.037834   -0.674340   -0.351216
H      6.702369    0.899714   -0.806189
H      5.442596    2.051451    0.626340
H      5.228614    0.471395    1.406249
H      3.080761    1.605146    1.148531
H      3.331816    1.661846   -0.681707
H      3.176759   -0.889061    1.003029
H      3.337096   -0.726789   -0.781626
H      1.137019    0.183857   -1.048804
H      1.088577   -1.292822   -0.057346
H      0.804658   -0.068253    2.015009
H      0.958995    1.508016    1.219248
H     -1.036328    1.048245   -0.151873
H     -1.388695    0.953183    1.579399
H     -1.154383   -1.579278    1.472483
H     -0.919820   -1.429489   -0.290251
H     -2.676036   -1.128145   -1.802274
H     -4.953941   -0.390220   -2.439344
H     -6.065188    1.603782   -1.409943
H     -6.976277   -0.744727    1.215242
