38

C     -1.343956    0.551149    2.222529
C     -0.165817    2.466544    0.384862
C     -3.020523   -1.641167   -1.182310
C      2.485986   -1.531170    0.442589
C      3.574119   -0.742547    0.160164
C     -0.700734    0.970256   -1.457238
C     -1.131965   -0.373373   -1.927455
C      0.032200   -1.779011    0.691500
C      2.177871    1.132977   -0.216301
C     -1.362369    0.307051    0.759531
C      1.207920   -0.942240    0.386623
C      3.443774    0.588901   -0.170841
C      1.043017    0.366342    0.063889
C     -1.262626   -1.147154    0.375820
C     -0.276593    1.007820   -0.005832
N     -1.633525   -1.274832   -0.980715
O      4.535299    1.403448   -0.460070
H     -0.361923    0.985695    2.560751
H     -1.517984   -0.343556    2.841327
H     -2.115508    1.312797    2.520315
H     -1.186912    2.819995    0.648349
H      0.198273    3.014651   -0.506975
H      0.550997    2.589434    1.222322
H     -3.134961   -2.338050   -2.028234
H     -3.665894   -0.733947   -1.307847
H     -3.373767   -2.163247   -0.265823
H      2.530656   -2.573169    0.705879
H      4.570990   -1.182274    0.198793
H     -1.476455    1.748992   -1.594270
H      0.182094    1.296926   -2.049462
H     -0.277789   -0.868121   -2.477613
H     -1.908626   -0.217384   -2.716595
H      0.132436   -2.683191    0.026190
H      0.103540   -2.188778    1.723471
H      2.059747    2.174083   -0.473913
H     -2.326915    0.671735    0.344232
H     -2.053888   -1.672239    0.989107
H      5.469810    0.986655   -0.422682
