39

C     -3.574207    1.240769   -0.491049
C     -2.824466    0.229009    1.575225
C      1.722882    0.557701   -2.114648
C      1.623897   -2.576432   -0.021113
C      3.044678    1.016740    1.101462
C      3.393214    0.564277   -0.299400
C     -0.682341   -1.932106   -0.278649
C     -1.447134   -0.803080   -0.909706
C      2.082871   -0.123509    1.471624
C      0.014633    0.653890    0.532569
C     -2.376534    1.088988    0.444873
C      2.041788    0.321831   -0.869923
C      0.738596   -1.588035   -0.020947
C     -1.177553    0.528793   -0.320143
C      1.189429   -0.217389    0.228595
H     -3.199727    1.215352   -1.534374
H     -4.313021    0.437282   -0.321384
H     -4.074960    2.221047   -0.355375
H     -3.342460    0.901430    2.322670
H     -2.050153   -0.290373    2.136313
H     -3.645093   -0.452155    1.230856
H      0.732031    0.372779   -2.506182
H      2.446849    0.951825   -2.809529
H      1.302046   -3.594943   -0.205097
H      2.685536   -2.389643    0.161259
H      3.906332    1.041801    1.769923
H      2.484953    1.948459    1.025908
H      3.956149    1.333963   -0.859749
H      3.938748   -0.387000   -0.202733
H     -0.691675   -2.776996   -0.998392
H     -1.117491   -2.301751    0.660962
H     -1.274496   -0.844402   -2.006931
H     -2.540820   -1.062604   -0.789343
H      1.538052    0.199414    2.356162
H      2.618294   -1.045930    1.681448
H      0.349755    1.727838    0.510254
H     -0.258823    0.479274    1.593167
H     -2.161290    2.101912    0.835497
H     -1.058489    1.251976   -1.183634
