113

C     11.116185    1.587342   -3.468006
C      6.472201   -2.689772    1.479131
C      6.680021   -2.203197    0.109915
C      5.459689   -2.147397    2.380448
C      7.122567   -0.770910   -0.030578
C      4.026920   -2.269700    2.104954
C      8.440408   -0.531966    0.694457
C      3.388022   -1.572247    0.991245
C      8.831899    0.903145    0.499653
C     -3.391120   -1.269012    0.022986
C      3.399954   -0.056046    1.100724
C     -3.211702    0.194630    0.114237
C     10.136055    1.204481    1.214902
C     -4.882242   -1.695271    0.016087
C      2.659260    0.384701    2.353663
C     -1.761194    0.603456    0.125711
C     11.281241    0.365298    0.743559
C     -5.565938   -1.087673   -1.147691
C      1.239445   -0.049066    2.416233
C     -1.066013    0.015289    1.312092
C     11.614861    0.496965   -0.700046
C     -6.954361   -1.429410   -1.474458
C     -9.322205   -1.819452    1.490244
C    -11.989446    2.021210    1.332040
C     12.341545    1.841461   -2.651809
C      0.375667    0.432733    1.330954
C     -7.937040   -1.869726    0.778537
C     12.018979    1.871256   -1.150686
C     -8.026796   -1.153395   -0.524025
C    -11.378642    1.505219    0.038160
C    -11.494577    2.492131   -1.090350
C    -10.141364    2.984011   -1.570622
C     -9.156349    1.859917   -1.797698
C     -9.363569    0.731573   -0.809106
N     13.362890    0.860402   -2.914426
N     -7.706409   -3.295799    0.501916
O    -10.253736   -2.340827    0.620567
O    -11.754113    1.026085    2.298712
O      0.785509    1.151298    0.455871
O     11.030087    2.832097   -0.951402
O    -12.192748    1.924842   -2.133020
O     -9.617795    3.802989   -0.543891
O     -9.328226    1.385718   -3.094334
O     -8.171831    0.227888   -0.329650
O    -10.023461    1.319733    0.290001
H     11.335747    1.878129   -4.527137
H     10.837281    0.504824   -3.476015
H     10.264422    2.205707   -3.136834
H      7.499761   -2.655198    1.988345
H      6.274570   -3.817875    1.385501
H      5.849993   -2.396937   -0.570832
H      7.558414   -2.815738   -0.313660
H      5.694045   -2.523520    3.442669
H      5.678372   -1.032170    2.480554
H      6.366649   -0.031570    0.169935
H      7.391943   -0.635463   -1.126455
H      3.452727   -2.060867    3.076817
H      3.804381   -3.381980    1.955281
H      8.323520   -0.702294    1.784673
H      9.171423   -1.258259    0.330623
H      2.283471   -1.848709    0.997933
H      3.777518   -1.830821    0.015477
H      8.055184    1.523634    1.000810
H      8.888194    1.143819   -0.571337
H     -2.859548   -1.834381    0.805077
H     -3.018904   -1.628005   -0.968427
H      2.946172    0.360559    0.199264
H      4.410813    0.351459    1.207803
H     -3.694099    0.644241    1.020304
H     -3.656185    0.726427   -0.766003
H      9.969455    0.929794    2.288703
H     10.337429    2.270467    1.149184
H     -5.226042   -1.236433    0.994279
H     -4.952242   -2.793283    0.101822
H      2.678576    1.492486    2.357143
H      3.198611   -0.025413    3.221526
H     -1.261922    0.291534   -0.829461
H     -1.688874    1.717785    0.115008
H     11.075757   -0.712508    0.940298
H     12.153971    0.607570    1.396919
H     -4.882193   -1.212978   -2.061240
H     -5.470480    0.054849   -0.988530
H      1.125856   -1.160127    2.503520
H      0.844876    0.323575    3.412216
H     -1.153290   -1.085189    1.380453
H     -1.594235    0.409337    2.226175
H     12.451154   -0.216429   -0.942961
H     10.752125    0.138401   -1.315758
H     -6.940058   -2.544175   -1.760033
H     -7.210274   -0.877066   -2.454882
H     -9.529659   -0.832983    1.892361
H     -9.223821   -2.529834    2.348379
H    -11.387879    2.894072    1.660760
H    -13.062964    2.226111    1.239926
H     12.740667    2.852149   -2.904875
H     -7.241633   -1.531163    1.513553
H     12.961602    2.153958   -0.642311
H     -9.003324   -1.485518   -1.054909
H    -11.826777    0.521487   -0.249202
H    -12.033803    3.384072   -0.691507
H    -10.314747    3.572815   -2.495496
H     -8.144968    2.296365   -1.719862
H    -10.038604    0.013639   -1.269498
H     14.008009    0.831520   -2.106250
H     12.945188   -0.097032   -3.000338
H     -7.519973   -3.760027    1.409433
H     -8.513913   -3.694097   -0.028729
H    -11.098368   -2.557106    1.063907
H    -10.879303    1.157907    2.721061
H     11.123891    3.559476   -1.621992
H    -12.715693    1.140959   -1.808735
H     -9.841049    4.737712   -0.773941
H     -9.339470    2.113302   -3.762909
