87

C     -5.953777   -3.074317    1.140116
C      4.046268    3.033007    0.079754
C     -0.240832   -1.127269   -4.163191
C      4.814715   -4.399882    3.306646
C      0.513505   -3.644175    2.253548
C     -4.162273    1.585446   -0.054207
C     -2.938350    1.109134    1.925584
C     -3.270825    2.675030   -0.321193
C     -2.077988    2.207873    1.611476
C     -4.479432   -1.576917   -1.634092
C      5.394464    0.250295    1.288594
C     -4.923875   -2.855955   -0.966501
C      4.632099    1.465009    1.736608
C     -4.771459   -0.467415    1.309852
C      2.588097    1.167480   -1.381555
C      1.809318    3.235678   -2.337479
C      0.624881    2.526014   -0.388632
C     -2.093082   -1.351179   -2.156154
C      4.515895   -1.977319    1.900948
C     -1.393821   -1.392970    0.568204
C      0.229794    6.385372   -2.962946
C     -3.974158    0.812045    1.069483
C      1.644626    2.317557   -1.292853
C     -3.040767   -1.468689   -1.168615
C      4.325511   -0.823467    1.203260
C     -2.259725    2.953760    0.498208
C     -2.721423   -1.494862    0.216023
C     -3.964414   -1.718476    1.004101
C      3.399041    0.787796   -0.250683
C     -0.791256   -1.259741   -1.758704
C     -0.373750   -1.276724   -0.408343
C      3.526728   -2.917335    1.879809
C      1.023992    4.353713   -2.548979
C     -0.171021    3.627099   -0.588222
C      3.179108   -0.500607    0.442980
C      0.019028    4.517503   -1.630177
C      2.393281   -2.622801    1.146236
C      2.150609   -1.442706    0.411715
N     -4.771633   -2.729555    0.393263
N      3.618255    1.799540    0.787722
O      0.127762   -1.145934   -2.833367
O      3.651332   -4.117018    2.564051
O      1.421021   -3.654779    1.171709
O      1.044161    5.353875   -3.509506
O     -0.630378    5.707324   -2.054165
O     -1.314457    4.024073    0.210915
O      0.980970   -1.189257   -0.302519
H     -6.189863   -4.137334    0.916176
H     -6.841774   -2.487413    0.840635
H     -5.784660   -3.048324    2.244536
H      4.859030    3.528161    0.647133
H      3.184774    3.715074    0.141221
H      4.282857    2.854040   -0.966944
H     -0.717987   -2.054801   -4.531125
H     -0.994746   -0.295324   -4.292334
H      0.591147   -0.857937   -4.831678
H      4.791038   -5.471339    3.593151
H      4.830612   -3.711097    4.167233
H      5.735017   -4.169166    2.707540
H     -0.541398   -3.801563    1.923211
H      0.806324   -4.427686    3.003889
H      0.535220   -2.689955    2.810049
H     -4.920525    1.571346   -0.881187
H     -2.564474    0.692169    2.895690
H     -3.606631    3.198472   -1.272409
H     -1.311891    2.316037    2.433802
H     -5.073989   -0.705038   -1.466117
H     -4.453769   -1.837613   -2.745100
H      6.014260    0.333803    0.423093
H      6.051592   -0.066925    2.144266
H     -4.234702   -3.655641   -1.369767
H     -5.982043   -3.102424   -1.223128
H      5.291233    2.340236    1.883831
H      4.145739    1.230909    2.719698
H     -5.153951   -0.600052    2.346513
H     -5.715139   -0.564038    0.748912
H      3.355915    1.381622   -2.228448
H      2.088669    0.232596   -1.803091
H      2.614844    3.074684   -3.051481
H      0.483971    1.850019    0.531226
H     -2.378307   -1.332468   -3.216230
H      5.443748   -2.154817    2.471383
H     -1.073823   -1.347779    1.657213
H      0.821708    7.101147   -2.381780
H     -0.404019    6.849024   -3.737312
H     -3.830961   -2.188412    2.029588
H      4.491187    0.772533   -0.690583
