51

C     -4.015932   -1.521516    2.409774
C      4.897340    2.479579    0.796003
C     -1.407342    3.148193   -2.131058
C     -4.905259    0.025921   -2.697281
C     -4.750106   -1.731480    1.107378
C      4.946128    1.646284   -0.456036
C     -3.840205   -2.055110   -0.030266
C     -1.540870   -1.253132    0.091354
C     -0.803838    0.809967   -0.792684
C      2.435787    1.268587   -0.567800
C      3.849808    0.652351   -0.564822
C     -2.840310   -1.021521   -0.329842
C     -0.503937   -0.361802   -0.123556
C     -2.106749    1.040827   -1.214593
C      3.361489   -0.029915    0.646281
C     -3.119480    0.145475   -0.992238
C      3.787166   -1.414862    0.869201
C      0.834724   -0.642210    0.366877
N      4.556457   -2.006207    0.032476
N      1.993284    0.119705    0.127130
O      3.356811   -2.090365    1.989772
O      0.913471   -1.712794    1.093349
O      4.994302   -3.296571    0.174100
O     -2.421883    2.201053   -1.882489
O     -4.388069    0.398707   -1.417280
H     -2.921181   -1.488913    2.297210
H     -4.212037   -2.359328    3.142211
H     -4.449339   -0.619037    2.886985
H      4.032903    3.172663    0.788204
H      4.978406    1.890284    1.718471
H      5.803856    3.142930    0.762762
H     -1.791194    4.004571   -2.742476
H     -1.074055    3.532992   -1.124404
H     -0.499460    2.722244   -2.604067
H     -5.996786   -0.026806   -2.623865
H     -4.437869   -0.969839   -2.920837
H     -4.546164    0.723343   -3.483861
H     -5.419954   -2.605469    1.254110
H     -5.435466   -0.876715    0.877245
H      4.827333    2.367991   -1.317357
H      5.905618    1.116552   -0.510568
H     -3.316094   -3.002969    0.188918
H     -4.493019   -2.289629   -0.909663
H     -1.301713   -2.188391    0.624808
H     -0.065159    1.570599   -0.992748
H      2.093165    1.446734   -1.613981
H      2.415723    2.171341    0.060169
H      4.022757   -0.041966   -1.406990
H      3.411991    0.551013    1.594489
H      3.319757   -3.095984    2.020620
H      5.865196   -3.647376   -0.175141
