52

C     -6.132362    2.541350    1.839455
C      1.045851   -4.206524   -2.780496
C      1.789080   -4.223248   -0.426768
C      4.530883    3.231813    0.440285
C      3.760183    2.117616    0.176361
C     -2.899586   -0.854740   -0.401757
C     -2.322124   -2.064080   -0.730406
C     -2.244041    2.734656    0.086062
C      4.642396    3.769454    1.709136
C     -2.962902    3.863910    0.441122
C     -4.080925    1.489454    0.883607
C     -0.771282    0.089604    0.003156
C      3.201824    2.070193    2.468515
C     -4.760545    2.615557    1.220845
C     -2.134571    0.243453   -0.029213
C     -2.806950    1.495412    0.307670
C      3.085017    1.530610    1.217103
C     -0.156056   -1.086617   -0.313343
C     -0.961590   -2.170174   -0.683945
C      1.291878   -1.342426   -0.306085
C      1.590110   -2.076675   -1.624209
C      2.251762    0.350370    1.015017
C      0.993148   -3.460530   -1.459738
N      3.969330    3.171290    2.703948
N     -4.186702    3.808076    0.993052
N      2.112714   -0.192478   -0.148981
O      2.959870   -2.188387   -1.823059
O      1.595560   -0.195883    2.108404
O     -0.345196   -3.381171   -1.011099
H     -6.138906    1.901487    2.732848
H     -6.496565    3.560362    2.016871
H     -6.784023    2.087457    1.058599
H      0.884750   -3.536370   -3.635987
H      2.091450   -4.605596   -2.869705
H      0.330785   -5.029138   -2.824613
H      1.213655   -4.307799    0.539533
H      2.749711   -3.727268   -0.292884
H      1.893317   -5.283603   -0.781046
H      5.072276    3.703673   -0.388756
H      3.704069    1.728861   -0.848834
H     -3.988055   -0.749533   -0.432900
H     -2.953060   -2.918803   -1.022440
H     -1.256365    2.792027   -0.359112
H      5.263903    4.651534    1.869115
H     -2.528312    4.849520    0.270754
H     -4.529169    0.529595    1.060878
H     -0.149383    0.922256    0.288104
H      2.696116    1.660734    3.347168
H      1.509226   -2.107724    0.492482
H      1.086364   -1.538521   -2.424280
H      3.322592   -1.293318   -2.068641
H      0.950843   -0.969719    2.066848
