48

C     -3.007920   -0.267511   -2.983100
C      5.778227   -0.258298   -3.106901
C     -4.141084    0.715327   -2.707294
C     -3.627408    1.839827   -1.871104
C      1.331741   -2.200838    1.956129
C      0.248650   -1.965858    2.999130
C      2.830663   -0.998124    0.462361
C     -1.844792    1.014664   -0.165223
C      1.231515    1.202198    0.400176
C     -2.533214    0.313225    3.393918
C      4.517874   -0.297274   -2.320324
C      1.630841   -0.973870    1.182480
C     -3.088703    1.397805   -0.563367
C      0.815356    0.134281    1.156814
C     -1.618078    0.658337    1.093119
C     -0.871590   -1.150140    2.453625
C      2.430115    1.187522   -0.323688
C      3.227116    0.066943   -0.281510
C     -2.750208    0.709445    1.961093
C     -0.424005    0.181161    1.891395
N     -1.899365   -0.986935    3.418010
O      3.489135   -0.732336   -2.908866
O      2.757889    2.319204   -1.056869
O      4.407155    0.103310   -1.018329
S     -4.018277    1.239756    0.976546
H     -3.377349   -1.115988   -3.584230
H     -2.591323   -0.673718   -2.052412
H     -2.240793    0.327818   -3.557288
H      5.868307    0.665250   -3.720253
H      5.766504   -1.099667   -3.840637
H      6.631324   -0.422330   -2.436019
H     -5.011126    0.198648   -2.287798
H     -4.429359    1.128256   -3.692651
H     -2.785463    2.319159   -2.403740
H     -4.420735    2.613275   -1.738995
H      1.073855   -3.027509    1.274571
H      2.243617   -2.502786    2.510821
H     -0.152327   -2.968867    3.251867
H      0.675811   -1.560012    3.936253
H      3.463808   -1.872594    0.488588
H     -1.032736    1.011758   -0.950767
H      0.612077    2.079676    0.372845
H     -3.539108    0.192628    3.824147
H     -1.992291    1.072549    3.960108
H     -1.288642   -1.724611    1.573834
H     -0.319190    0.887490    2.748423
H     -1.617022   -1.166625    4.404422
H      3.590529    2.386380   -1.596188
