51

C      3.790385    3.643307   -0.996819
C     -4.347997    2.964051    0.941613
C      2.602127   -0.129208    2.185264
C     -3.035254   -1.567427   -0.694953
C      3.718078    0.472441    2.708168
C     -4.377683   -1.623693   -0.377131
C      2.573741    1.375220    0.357838
C     -2.990145    0.689431   -0.053832
C      1.786946   -2.605513   -0.015667
C     -0.245075   -1.865988   -2.657399
C      2.011926    0.300827    1.015542
C     -2.332290   -0.424080   -0.539347
C      1.158353   -1.370434   -0.611513
C     -0.207058   -1.578903   -1.173522
C      4.255132    1.555738    2.012310
C     -5.058513   -0.528785    0.108755
C      3.696562    2.014991    0.842875
C     -4.348713    0.641922    0.270488
C      0.829292   -0.390057    0.525406
C     -0.908522   -0.292455   -0.852729
O      1.923788   -3.590467   -0.936877
O      0.467038   -3.017376   -2.917910
O      5.377740    2.171839    2.525343
O     -6.427679   -0.586621    0.432778
O      4.288076    3.097249    0.208798
O     -5.031561    1.745191    0.759283
O     -0.189709    0.400384    0.095903
H      3.507398    2.834434   -1.701631
H      2.909618    4.270116   -0.752054
H      4.584393    4.237919   -1.486286
H     -3.734689    2.871432    1.861137
H     -3.765110    3.267274    0.061664
H     -5.102460    3.771569    1.159254
H      2.207922   -0.980197    2.762633
H     -2.588060   -2.451842   -1.063842
H      4.169694    0.138549    3.609026
H     -4.954923   -2.549228   -0.500953
H      2.139268    1.756061   -0.579983
H     -2.475681    1.631833    0.090473
H      2.795612   -2.307185    0.340513
H      1.128181   -2.920641    0.826344
H      0.200018   -1.053128   -3.251122
H     -1.276368   -2.020167   -3.023366
H      1.837053   -0.873518   -1.347669
H     -0.628915   -2.455513   -0.597891
H      0.400297   -1.056057    1.331525
H     -0.809357    0.334999   -1.796422
H      1.641872   -4.505455   -0.622151
H     -0.078954   -3.836466   -2.960544
H      5.813615    1.859084    3.383440
H     -6.899408   -1.465459    0.296149
