54

C     -6.028126    2.804912   -0.031414
C     -7.291393   -1.719519    0.788908
C     -4.324408   -3.522229   -1.527913
C      8.153880    0.698357    0.236413
C      7.567740    1.788645   -0.365373
C      7.394951   -0.348785    0.699076
C      6.205252    1.817224   -0.499340
C     -1.314063    0.557173    0.071414
C     -3.806347    1.172574   -0.011698
C      3.738634   -1.312546    0.938089
C      3.519822    1.363802   -1.577980
C      1.689352    1.495137    0.107328
C     -2.689466    0.351826   -0.001793
C      3.100776    1.999024   -0.252995
C      6.016450   -0.297237    0.552652
C      5.400031    0.767023   -0.040123
C     -0.648433   -0.627579    0.041827
C      5.182178   -1.400077    1.077401
C     -5.080770    0.599645   -0.098596
C      3.179855   -0.289923    0.348918
C     -2.829591   -1.010945   -0.076451
C     -5.231732   -0.766166   -0.173894
C     -4.112225   -1.559933   -0.162523
C      0.758234   -0.904134    0.121146
C      3.945655    0.816148   -0.221394
N     -1.613599   -1.576678   -0.049410
N      1.785609    0.067598    0.167912
O      5.753295   -2.362563    1.619410
O      1.081968   -2.154621    0.152200
O     -6.204684    1.405081   -0.109590
O     -6.465276   -1.317601   -0.257842
O     -4.294355   -2.929218   -0.239422
H     -5.263786    3.179226   -0.755628
H     -5.770206    3.153934    0.984497
H     -6.970155    3.348586   -0.309160
H     -7.227496   -2.783400    1.054009
H     -6.994339   -1.144950    1.701247
H     -8.354168   -1.401365    0.587148
H     -5.254781   -3.307473   -2.069550
H     -4.130591   -4.603310   -1.389905
H     -3.492793   -3.142740   -2.172228
H      9.235011    0.648051    0.356129
H      8.191703    2.622871   -0.731722
H      7.807485   -1.224609    1.177506
H      5.727754    2.679849   -0.970897
H     -0.905970    1.553052    0.153081
H     -3.648915    2.226697    0.048293
H      3.111246   -2.118703    1.333942
H      2.840373    0.684280   -2.110991
H      4.257725    1.950132   -2.115441
H      1.301041    1.899927    1.023720
H      1.095969    1.780159   -0.819483
H      3.393725    3.014646   -0.003804
H     -1.488045   -2.619273   -0.095965
