36

C     -4.843460    0.201862    0.290684
C     -3.179108   -0.303655   -1.412658
C     -2.665983    1.285164    0.412961
C      5.462665    2.274795    0.167130
C      2.296982   -1.351960   -0.882773
C      1.013048   -1.621909   -0.651712
C      1.528674    0.299260    0.544783
C      2.821878   -0.437433    0.168748
C      0.607737   -0.904393    0.565164
C      3.858801    0.461048   -0.298220
C     -1.636409   -1.479172    0.853495
C     -3.348871   -0.014344    0.048320
N     -0.780256   -0.545695    0.606093
O      4.235812    0.426231   -1.480550
O     -1.253956   -2.804094    1.078097
O      4.445598    1.371275    0.562880
O     -2.963865   -1.076274    0.881144
H     -5.347484   -0.787317    0.268174
H     -5.300375    0.816768   -0.508490
H     -5.005969    0.622934    1.300730
H     -2.177506   -0.012077   -1.788876
H     -3.461154   -1.328482   -1.659050
H     -3.904089    0.365356   -1.960390
H     -2.230859    1.154475    1.425220
H     -3.381446    2.126876    0.482427
H     -1.873312    1.536503   -0.319156
H      6.378240    2.142659    0.772371
H      5.073698    3.300383    0.390378
H      5.667344    2.156600   -0.926547
H      2.896642   -1.725084   -1.702106
H      0.418780   -2.259396   -1.275170
H      1.604041    0.799992    1.511958
H      1.316642    0.978183   -0.304364
H      3.089391   -1.065819    1.034724
H      0.926668   -1.518578    1.442135
H     -0.288537   -3.084681    0.961803
