45

C     -4.382152    1.440729    0.333223
C     -2.577656    2.300220   -0.977718
C      6.125049    0.338968    0.472646
C      2.312984    2.292825    0.545054
C      1.177993    1.521793    0.525051
C      3.561177    1.664328    0.514214
C     -1.012492   -2.882426   -0.007039
C      0.262910   -2.127760    0.380148
C     -1.651427   -0.996226   -1.402235
C      2.515323   -0.469933    0.442593
C     -2.234318    0.406551    0.463540
C      1.276867    0.129525    0.473952
C     -1.058715   -0.102429   -0.375877
C     -1.233563   -2.416378   -1.438390
C      3.689988    0.303803    0.463755
C      0.008851   -0.649237    0.481725
N     -3.157559    1.105920   -0.388545
O     -2.176496   -3.186297   -2.111933
O     -0.443094   -0.496507    1.830236
O      4.901996   -0.359191    0.434140
H     -5.221362    0.970403   -0.245931
H     -4.400967    1.101858    1.364917
H     -4.555479    2.531827    0.294066
H     -3.347805    3.045799   -1.265778
H     -1.908832    2.784086   -0.242879
H     -1.969168    2.017533   -1.854816
H      6.461815    0.710322   -0.509497
H      6.094947    1.248457    1.128306
H      6.860202   -0.334629    0.978680
H      2.270226    3.373108    0.585454
H      0.195021    2.003051    0.547044
H      4.464927    2.257366    0.526157
H     -0.750732   -3.963810    0.018468
H     -1.872544   -2.629518    0.628345
H      0.604850   -2.577872    1.336680
H      0.962012   -2.385776   -0.465624
H     -1.499123   -0.591445   -2.454795
H     -2.782761   -1.018446   -1.335971
H      2.554605   -1.540177    0.411042
H     -1.868707    1.018276    1.308188
H     -2.760727   -0.462609    0.880351
H     -0.669245    0.798637   -0.890717
H     -0.264350   -2.522368   -1.987304
H     -2.356660   -4.028890   -1.611721
H     -0.145808    0.376539    2.198797
