53

C      0.513346   -3.131110   -1.402970
C      5.403855    3.166712   -0.507412
C      1.069405   -1.735752   -1.248699
C     -4.640137    3.191063   -1.026817
C     -4.001682    3.235125   -2.259626
C      0.785929   -2.909340    1.815751
C     -4.134143    2.362801   -0.031153
C     -2.882092    2.454473   -2.460793
C      3.076195    0.185751   -0.276425
C     -2.445726    0.193811    1.922397
C      1.582144   -1.868387    1.155475
C      1.621092    0.267650   -0.002757
C     -0.664224   -2.940194    1.599963
C     -2.270759   -1.286734    1.942576
C     -3.012989    1.594258   -0.262769
C     -2.327578    0.722973    0.512982
C     -2.371310    1.627762   -1.477158
C      3.636831    1.560240   -0.288473
C     -1.256686    0.201935   -0.194786
C     -0.445467   -0.754787    0.555872
C      0.903263   -1.080742    0.048226
N     -1.325665    0.783613   -1.402045
N     -1.277234   -1.808318    1.022706
O      2.862590    2.523945   -0.081827
O      4.978859    1.819857   -0.518521
H     -0.590735   -3.159255   -1.304695
H      0.691219   -3.403667   -2.489198
H      1.047151   -3.896077   -0.841890
H      6.505166    3.208578   -0.419936
H      4.972272    3.748451    0.321571
H      5.102998    3.643674   -1.451939
H      0.792021   -1.197711   -2.146067
H      2.187527   -1.914032   -1.381391
H     -5.508653    3.795432   -0.867967
H     -4.424621    3.890680   -3.007862
H      0.989021   -2.895760    2.933152
H      1.207590   -3.924840    1.538603
H     -4.589563    2.295973    0.929146
H     -2.414344    2.516802   -3.432642
H      3.651510   -0.362801    0.506338
H      3.321847   -0.255215   -1.280439
H     -1.789647    0.743849    2.614422
H     -3.498932    0.405535    2.268697
H      1.872321   -1.102952    1.938773
H      2.559672   -2.278707    0.822594
H      1.507784    0.800795    0.981103
H      1.173805    0.948255   -0.754561
H     -1.180903   -3.202331    2.577370
H     -0.958480   -3.833803    0.964901
H     -1.907575   -1.551271    2.977448
H     -3.227817   -1.837630    1.828832
H     -0.181005   -0.200963    1.526794
H     -0.687444    0.642387   -2.212877
