49

C      5.237472    2.807276    0.312547
C     -5.700949    1.521948    1.695254
C      3.637922   -1.942032   -0.316423
C     -3.084561    0.181591   -2.417228
C      4.988304   -2.006635    0.045084
C     -4.416171    0.263286   -2.774538
C      1.570225   -0.713792   -0.821400
C     -1.260136    0.365625   -0.729112
C      3.731631    0.403259   -0.193529
C     -3.627167    0.790408   -0.214526
C      0.716612   -1.937562    1.216004
C     -1.481259   -1.510876    0.946945
C      2.994256   -0.730265   -0.439535
C     -2.663253    0.442414   -1.134380
C      0.620608   -0.747770    0.324916
C     -0.791424   -0.955191   -0.245591
C      5.689374   -0.848537    0.282349
C     -5.378937    0.609921   -1.859388
C      5.065714    0.365785    0.164681
C     -4.977468    0.875660   -0.566868
O      7.024963   -0.954876    0.638122
O     -6.736879    0.694922   -2.216750
O      5.802258    1.511575    0.410981
O     -5.962075    1.224871    0.347520
O     -0.555436   -2.219666    1.697118
H      6.083431    3.525267    0.280776
H      4.604584    2.991729    1.182603
H      4.678650    2.855543   -0.655465
H     -4.787006    2.137016    1.816672
H     -6.596277    2.041210    2.111021
H     -5.569886    0.543704    2.223229
H      3.171966   -2.902652   -0.483397
H     -2.301932   -0.094120   -3.136368
H      5.506962   -2.945257    0.145917
H     -4.715960    0.052587   -3.789727
H      1.338478    0.229773   -1.396541
H      1.326806   -1.533121   -1.553017
H     -1.030349    1.160280   -0.004978
H     -0.647738    0.611005   -1.644419
H      3.247752    1.365270   -0.283924
H     -3.366593    1.009861    0.810538
H      1.060301   -2.831014    0.635517
H      1.434785   -1.738752    2.037608
H     -1.853807   -0.667477    1.595087
H     -2.349015   -2.165044    0.714368
H      0.587012    0.199103    0.887449
H     -0.744082   -1.725245   -1.052674
H      7.543925   -0.122703    0.812641
H     -7.065631    0.511699   -3.134761
