58

C     -4.554666   -0.624119    1.332694
C     -3.507983   -1.620113    0.944606
C     -2.334692   -0.409844   -2.419985
C     -2.495418   -1.585367   -3.115068
C      5.275390   -1.990061   -0.323505
C      6.215486   -0.164417    0.830968
C     -0.385960    0.312042    0.812221
C     -0.069604    1.375024   -1.391766
C      1.001035    0.745372    1.218222
C      1.282270    1.928650   -0.918069
C      6.560656   -2.385228   -0.718918
C      7.479449   -0.560350    0.437119
C      3.743847   -0.444886    0.881538
C     -4.808011    1.452441    2.395472
C     -3.650531    3.449087    1.818258
C      5.094797   -0.870696    0.458341
C     -0.937316    1.268984   -0.183761
C     -4.133418    0.767730    1.373554
C     -4.562117    2.789491    2.611390
C     -2.639495   -0.311359   -1.062348
C     -3.106987   -1.469185   -0.485762
C     -2.967086   -2.718065   -2.491617
C      3.126126    0.484163   -0.104175
C     -2.396001    1.013783   -0.510789
C     -3.274362   -2.647951   -1.157062
C     -3.234885    1.442528    0.601045
Br    -5.498721    3.709690    4.018540
Br    -3.932147   -4.229176   -0.290281
Cl    -3.173094   -4.231769   -3.390627
N     -3.022164    2.771767    0.851784
N      1.836567    1.033455    0.069370
N      7.621905   -1.656011   -0.324816
O      3.776171    0.793315   -1.132426
O      8.890814   -2.060298   -0.724559
H     -5.395647   -0.704179    0.582417
H     -5.023862   -0.973390    2.293176
H     -2.597866   -1.513214    1.569641
H     -3.885515   -2.644036    1.134046
H     -1.965075    0.457612   -2.936118
H     -2.261782   -1.671609   -4.167550
H      4.433262   -2.578550   -0.642943
H      6.126201    0.712799    1.438749
H     -0.305976   -0.676910    0.352746
H     -1.067251    0.325907    1.696829
H     -0.431942    2.111357   -2.130041
H      0.148531    0.379787   -1.806218
H      0.914228    1.608625    1.895274
H      1.530030   -0.059575    1.793408
H      1.121880    2.904902   -0.399767
H      1.978805    2.011363   -1.759509
H      6.688798   -3.262798   -1.330550
H      8.383570   -0.023196    0.715304
H      3.083113   -1.309174    1.107593
H      3.837771    0.123317    1.837115
H     -5.516638    0.888495    2.993118
H     -3.481734    4.500231    2.015729
H     -0.925127    2.287746    0.306600
H     -2.607629    1.745865   -1.352942
