31

C     -1.563011    0.742173   -1.341063
C     -3.490651   -1.030337   -0.450793
C      3.402630    1.786746    0.234522
C      2.144730    2.333245    0.103335
C      1.453524   -2.627758    0.093404
C      3.494952    0.412094    0.268697
C      2.527126   -1.781001    0.198261
C      0.998873    1.556441    0.007622
C      0.224658   -2.022239   -0.032817
C      2.379500   -0.398453    0.176711
C      1.118680    0.187900    0.045734
C      0.038545   -0.650729   -0.057191
C     -1.756104    0.470317    1.172264
C     -1.367867   -0.068025   -0.127170
O     -2.528123   -0.269877    1.902839
O     -1.447260    1.653579    1.785460
O     -2.161276   -1.240158   -0.275408
H     -2.232302    0.265934   -2.128382
H     -0.603004    0.843297   -1.953582
H     -2.029514    1.740472   -1.194308
H     -3.946177   -2.080937   -0.518355
H     -3.780201   -0.625902   -1.472135
H     -4.058799   -0.543962    0.337641
H      4.287287    2.407429    0.308288
H      2.035286    3.426501    0.072423
H      1.576641   -3.703325    0.110055
H      4.476097   -0.076289    0.371742
H      3.544865   -2.182240    0.303390
H      0.055504    2.017054   -0.113308
H     -0.620553   -2.692015   -0.115178
H     -2.174055    2.150067    2.287305
