85

C     -5.192942    1.234423   -1.307661
C      5.231282    4.608908    1.853474
C     -2.385775   -1.363271    3.840998
C      0.637510   -6.423039   -3.005749
C     -1.419307   -2.431592   -3.244371
C     -0.860345    4.303515   -0.799019
C     -0.591459    2.915255   -2.703512
C      4.269304    0.609450    1.568024
C      0.557788    4.206022   -0.560020
C      0.814803    2.847393   -2.426617
C      4.605504    1.930957    1.690739
C      3.228333   -4.297047    0.668099
C     -4.447807    2.506004    1.508931
C      3.121429   -3.878425    2.098115
C     -5.486390    2.741856    0.466303
C      3.242192   -1.393831    0.710235
C     -2.927750    3.542296   -1.956885
C      2.893377    0.935172   -0.367091
C     -3.058277    0.549367    2.013842
C      1.547642   -4.764713   -1.042193
C     -1.962713    0.649412   -0.620713
C     -1.399366    3.639350   -1.871635
C      3.428192    0.076266    0.567753
C     -3.399602    1.509758    1.116004
C      1.986022   -3.877872   -0.031497
C      1.351688    3.484757   -1.361655
C     -2.855205    1.580328   -0.216618
C      1.944721   -1.881377    1.310937
C     -3.465611    2.800738   -0.795991
C      4.049196    2.762035    0.737584
C     -2.144312   -0.379067    1.571353
C      3.219221    2.261443   -0.250874
C     -1.573181   -0.383163    0.288657
C      0.367712   -4.450031   -1.652643
C      1.239819   -2.770357    0.287853
C     -0.370516   -3.302787   -1.287914
C      0.016518   -2.413353   -0.309662
N      2.250012   -2.802210    2.370892
N     -4.880989    2.580286   -0.841867
O      4.396414    4.119649    0.860395
O     -1.853341   -1.325949    2.571164
O     -0.099318   -5.290466   -2.652266
O     -1.553275   -3.174276   -2.045610
O      2.763417    3.345090   -1.101005
O     -0.709928   -1.361243    0.015849
H     -5.534780    0.589270   -0.449546
H     -6.008029    1.221962   -2.040540
H     -4.268605    0.714845   -1.684348
H      5.195775    5.734824    1.781082
H      6.277084    4.289780    1.672895
H      4.845735    4.279050    2.842765
H     -3.492247   -1.435010    3.833229
H     -2.080073   -0.416943    4.377038
H     -1.917193   -2.180706    4.397843
H      0.850776   -7.037886   -2.082405
H      1.597744   -6.177805   -3.537197
H      0.094086   -7.110201   -3.680476
H     -0.519653   -1.768721   -3.234504
H     -1.271371   -3.105565   -4.121201
H     -2.281700   -1.755041   -3.412154
H     -1.239525    4.994584   -0.001931
H     -0.766401    2.323762   -3.640834
H      4.717135   -0.044935    2.341878
H      0.811210    4.824904    0.346603
H      1.316168    2.229008   -3.224881
H      5.246923    2.318950    2.453953
H      4.171715   -4.016034    0.166530
H      3.175825   -5.448379    0.666633
H     -3.986911    3.454290    1.835757
H     -4.914762    2.103198    2.461516
H      2.892637   -4.778552    2.753301
H      4.168831   -3.520716    2.387433
H     -6.296817    2.022177    0.554960
H     -5.901842    3.761623    0.604066
H      4.057075   -1.775590    1.402954
H      3.448387   -2.012847   -0.183057
H     -3.455149    4.517790   -2.026984
H     -3.332434    3.046727   -2.854428
H      2.238692    0.556831   -1.226449
H     -3.479373    0.509776    3.026798
H      2.107223   -5.630618   -1.313037
H     -1.511113    0.592104   -1.662473
H      1.298228   -1.057507    1.616130
H     -3.405611    3.657034    0.022890
H      2.627655   -2.245095    3.166057
