63

C      7.517604   -1.784639   -0.802904
C      5.568445   -2.276080    0.605409
C      1.645286    1.984541   -1.154566
C      3.998488    1.681563   -0.249464
C     -3.608072   -1.157427   -0.959954
C      0.572231    2.494777   -0.187314
C      4.879193    1.091673    0.668242
C     -4.344628   -2.105509   -0.310880
C     -7.274945   -0.204178    0.966105
C     -8.399681   -0.709877    0.062798
C     -5.252286    0.424318   -0.361673
C      0.725140    0.204044    0.701967
C      3.055514   -0.067217    1.611805
C     -2.250949    1.800956   -0.779249
C      6.616164   -0.146461    2.564060
C      2.676736    1.407922   -0.241868
C     -4.060603    0.144379   -0.994536
C     -5.996088   -0.526182    0.292210
C      2.172462    0.520646    0.695554
C     -0.179754    1.350570    0.362086
C      4.405958    0.207694    1.610105
C     -5.539120   -1.822691    0.322995
C     -3.307795    1.229352   -1.681186
C      7.283952   -0.584140    1.334435
N     -1.220229    0.842866   -0.515755
N      6.758834   -1.508427    0.435356
O     -9.650105   -0.457274    0.605660
O     -6.258483   -2.826465    0.974588
O     -2.828393    0.827779   -2.916856
O      8.458246   -0.071581    1.068087
O      5.247357   -0.412786    2.555265
H      6.848924   -1.482934   -1.628542
H      8.401615   -1.137880   -0.786529
H      7.758264   -2.874084   -0.845851
H      5.833695   -3.330968    0.212079
H      5.297768   -2.481205    1.645703
H      4.725191   -2.003810   -0.065252
H      2.010153    2.881371   -1.690204
H      1.251293    1.262399   -1.871968
H      4.367460    2.376575   -0.992171
H     -2.672613   -1.366650   -1.458858
H     -0.025981    3.297344   -0.639950
H      1.125555    2.980831    0.668050
H      5.933906    1.335035    0.634581
H     -3.971021   -3.134914   -0.292583
H     -7.309548    0.889609    1.101935
H     -7.322644   -0.729202    1.937080
H     -8.227005   -1.770831   -0.145924
H     -8.357050   -0.173201   -0.909255
H     -5.665291    1.442922   -0.353908
H      0.498051   -0.695462    0.083852
H      0.469739   -0.112360    1.758117
H      2.690502   -0.762283    2.354383
H     -2.740109    2.115504    0.166009
H     -1.867485    2.723951   -1.251727
H      6.743460    0.987818    2.581587
H      7.118206   -0.548530    3.481831
H     -0.726546    1.724626    1.281310
H     -4.055406    2.038214   -1.898918
H     -0.840184    0.379875   -1.345103
H     -9.833038    0.500531    0.581275
H     -5.871935   -3.760445    0.963225
H     -2.998402   -0.123991   -3.116883
