49

C     -3.940800   -0.610797    1.813382
C      5.038555    1.840965    0.492376
C      0.107105   -4.119999   -0.735312
C      5.816064    2.300263   -0.561486
C     -0.941203   -3.955215    0.136770
C     -1.933862    1.494274   -0.997336
C     -3.396674    1.327128   -1.273762
C     -1.785900    2.029794    0.427749
C      0.994187   -3.100833   -0.979951
C      4.033736    0.919157    0.288868
C      5.572752    1.819083   -1.840849
C     -1.092777   -2.743292    0.768794
C     -4.070104    0.749920   -0.067218
C     -1.036293    0.220972    1.989861
C      0.915707    0.136481    0.462424
C     -2.177066    0.955733    1.390072
C      0.828372   -1.894713   -0.339659
C      3.779772    0.431273   -0.979719
C      1.550219   -0.714482   -0.386275
C      4.561060    0.895984   -2.022636
C     -0.216454   -1.687828    0.547451
C      2.732669   -0.543515   -1.225826
I      4.262956    0.218314   -4.009359
N     -3.122713    0.040868    0.783649
N     -0.173121   -0.451043    1.043101
O      2.894234   -1.284072   -2.259346
H     -4.536512   -1.423209    1.352925
H     -4.667007    0.133845    2.248382
H     -3.327773   -1.071166    2.611573
H      5.238003    2.223635    1.483845
H      0.193495   -5.100282   -1.218154
H      6.615494    3.029056   -0.424692
H     -1.657999   -4.765092    0.340450
H     -1.425394    0.535715   -1.152217
H     -1.551073    2.254964   -1.719412
H     -3.601813    0.720802   -2.182083
H     -3.864233    2.323258   -1.470546
H     -0.808413    2.478316    0.587550
H     -2.534108    2.873394    0.477594
H      1.799511   -3.274300   -1.669716
H      3.474293    0.606182    1.158035
H      6.194298    2.194935   -2.642275
H     -1.893994   -2.593733    1.449374
H     -4.805814   -0.027470   -0.419355
H     -4.656405    1.503825    0.494686
H     -0.436757    0.977233    2.583423
H     -1.385881   -0.491364    2.776909
H      1.219234    1.150244    0.659337
H     -2.781575    1.466788    2.208606
