55

C      0.192704   -2.292465   -0.341094
C      4.968006   -0.734948   -1.497158
C      4.407149    0.568825   -1.958327
C     -1.015017    2.001574    1.878608
C     -3.615654   -1.488981   -2.427802
C     -4.015431    0.122277   -0.144880
C      3.102583    1.128929    1.221215
C      2.643446   -0.515603   -0.397316
C     -2.004561    1.350696    1.191116
C     -4.366381    1.107901    0.770180
C     -3.193964   -2.436219   -1.413755
C      0.294402    1.661828    1.649951
C     -2.424900   -1.198884   -1.443255
C      4.413820    0.656257    0.655676
C     -1.709341    0.343162    0.259356
C      0.663027    0.681548    0.750551
C     -3.325550    1.701970    1.419879
C     -0.385727    0.049596    0.085034
C     -5.762264    1.449059    0.987024
C      4.053476    0.012412   -0.640532
F     -4.019879   -2.662170   -0.334625
F      1.280192    2.315215    2.347511
N      5.000607   -0.390148    1.507482
N      2.034241    0.402515    0.509115
N     -2.739477   -0.248027   -0.397688
O     -3.571280    2.610682    2.266192
O     -6.649400    0.847422    0.342216
O     -6.161675    2.423616    1.887611
O     -0.013009   -0.957019   -0.793086
Cl     0.691886    0.000000    0.000000
O     -0.000834    0.372815   -0.000000
H     -0.639005   -2.955036   -0.306343
H      0.980162   -2.806530   -0.969939
H      0.646918   -2.278882    0.697770
H      4.579654   -1.699214   -1.910116
H      6.056838   -0.784651   -1.268907
H      5.107017    1.405380   -2.024839
H      3.591953    0.575526   -2.729573
H     -1.286743    2.772574    2.590020
H     -3.340061   -1.739847   -3.489380
H     -4.500220   -0.890370   -2.380791
H     -4.794879   -0.397128   -0.669121
H      3.049012    2.233216    0.988629
H      3.103161    0.948466    2.294536
H      2.826760   -1.478673    0.144954
H      2.201518   -0.604038   -1.385721
H     -2.757791   -3.414646   -1.778349
H     -1.567832   -0.961762   -2.119814
H      5.153561    1.458273    0.573421
H      6.029621   -0.358532    1.489734
H      4.564278   -0.379333    2.438297
H     -7.084065    2.844186    1.876333
H     -0.691886    0.000000    0.000000
H      0.820954   -0.186142    0.000000
H     -0.820120   -0.186673   -0.000000
