53

C      6.374496    0.172272   -2.483395
C      5.217657    0.757018   -2.015741
C      7.193943   -0.466388   -1.608571
C     -8.780720    0.653355   -0.602625
C     -2.113133   -1.301086    0.435109
C     -1.307048   -1.266006   -0.690725
C     -8.121394    1.089593    0.529077
C      5.702646    0.067068    0.178026
C      3.591709    1.376152   -0.285819
C     -7.229422   -1.198186   -0.713417
C     -0.773209    0.328644    1.477212
C      2.043170   -0.109841   -1.623221
C     -3.804217   -1.280730    2.905120
C      4.854276    0.720944   -0.688610
C      6.877085   -0.533882   -0.257179
C      2.395528    0.492773   -0.311720
C     -8.302994   -0.493191   -1.192190
C     -1.890284   -0.522731    1.547727
C      0.031802    0.387272    0.397470
C     -6.555595   -0.758447    0.437304
C     -0.230103   -0.413185   -0.700200
C     -7.031755    0.374091    1.015061
C     -4.931717   -0.985785    1.970045
C      1.224381    1.278166    0.291876
C      7.757325   -1.219475    0.680471
F     -8.953525   -0.934678   -2.319461
N     -5.522701   -1.312247    1.017883
O      0.988945    2.348633   -0.567733
O      7.420318   -1.248584    1.888456
O      8.919629   -1.822637    0.295046
O     -2.666522   -0.521733    2.688916
O      0.636075   -0.303346   -1.776646
S     -5.962586    0.588802    2.375461
H      6.644520    0.209078   -3.523731
H      4.583323    1.262066   -2.737074
H      8.132802   -0.956827   -1.902814
H     -9.627144    1.149068   -1.038034
H     -2.969960   -1.991301    0.458216
H     -1.505332   -1.885860   -1.547315
H     -8.416336    1.963195    1.052795
H      5.412714    0.041815    1.218391
H      3.665436    1.781912    0.763563
H      3.392558    2.296418   -0.907923
H     -6.948998   -2.082312   -1.262938
H     -0.553154    0.963257    2.329055
H      2.505941   -1.104852   -1.802457
H      2.327267    0.518878   -2.506714
H     -3.551771   -2.344367    2.715190
H     -4.183752   -1.209670    3.955683
H      2.548288   -0.362236    0.411358
H      1.531193    1.603882    1.296862
H      0.271757    2.936252   -0.209245
H      9.688589   -2.051114    0.944122
