55

C     -1.200026    3.579654   -0.411597
C     -3.763638   -2.386792    1.602931
C     -2.299577   -2.675998    1.488184
C     -4.365301   -1.836178    0.344633
C     -1.482377   -1.535372    1.001352
C      4.052731    0.952083    1.167067
C      2.739807    0.796416    0.731889
C      1.036619   -0.227995   -0.665597
C      7.000953   -1.361642   -0.552871
C      0.001479    0.419521   -0.228692
C      5.694139   -1.490132   -0.959258
C      6.367250    0.296135    0.992039
C     -4.180720    0.210512   -1.035097
C     -2.275951    2.505997   -0.425545
C     -3.452920   -0.993466   -0.462203
C      5.034291    0.179067    0.591687
C      2.402086   -0.103484   -0.250861
C      7.371091   -0.466216    0.432199
C     -2.261446   -0.462309    0.297213
C     -1.366128    0.182021   -0.758312
C     -3.330322    1.047654   -1.924074
C      4.685095   -0.736486   -0.409338
C     -1.983335    1.390036   -1.363664
C     -3.965718    2.405414   -2.000228
N      3.407640   -0.828605   -0.772659
O      8.658568   -0.307183    0.865428
O     -4.786664    2.740100   -2.892423
O     -3.458924    3.119671   -0.934506
H     -0.537822    3.404453   -1.262166
H     -1.650562    4.600768   -0.471693
H     -0.657685    3.566955    0.577645
H     -3.999618   -1.732741    2.465189
H     -4.272845   -3.365372    1.811477
H     -2.157251   -3.555523    0.809167
H     -1.947031   -3.016608    2.485055
H     -4.724998   -2.680688   -0.289792
H     -5.307304   -1.297517    0.652186
H     -0.664434   -1.896845    0.330837
H     -0.957970   -1.052343    1.860818
H      4.336079    1.653210    1.937026
H      2.013124    1.430263    1.220176
H      0.829428   -0.969472   -1.460263
H      7.780986   -1.955481   -0.989362
H      0.153953    1.154629    0.547948
H      5.463449   -2.200257   -1.727172
H      6.609241    1.019548    1.775827
H     -4.665272    0.806819   -0.228894
H     -5.016266   -0.199760   -1.647779
H     -2.474660    2.231219    0.603590
H     -3.040759   -1.547208   -1.349242
H     -2.624757    0.244168    1.039244
H     -1.281162   -0.579687   -1.562943
H     -3.248745    0.579493   -2.925060
H     -1.330448    1.758215   -2.163335
H      9.094628   -0.812660    1.619429
