57

C     -4.588140   -4.251770   -2.336206
C     -3.352445   -3.763814   -2.658095
C     -5.086360   -4.027129   -1.052438
C     -2.608585   -3.058113   -1.723056
C     -4.336112   -3.321798   -0.126750
C     -1.202408    3.856360    1.645524
C     -0.326240    3.411900   -0.494084
C     -0.976791    5.201723    1.436924
C     -0.094722    4.750439   -0.717796
C      4.084279   -1.207643    1.789740
C      5.203157   -1.593290    1.097669
C     -2.148530    1.024144   -0.065999
C     -1.670126   -0.189627   -0.832662
C      3.517252    0.284339    0.086660
C     -2.315588   -2.087580    0.530328
C     -0.425275   -0.789379    1.061294
C      1.049503    0.884859    1.985247
C      6.141468   -0.681561   -2.268069
C     -3.092726   -2.832111   -0.454411
C     -0.879655    2.927819    0.677889
C      0.093272    0.640204    0.841870
C     -0.424557    5.673892    0.265023
C      3.184606   -0.248227    1.316980
C     -1.133073    1.514791    0.936932
C      5.491075   -1.028849   -0.132197
C      4.636297   -0.080449   -0.639014
F     -0.206914    7.014051    0.073243
N     -1.281951   -1.249223    0.026792
O      2.122835    0.048420    2.085732
O      6.535371   -1.234699   -1.022935
O      5.182741    0.289426   -1.861448
H     -5.197705   -4.807104   -3.039363
H     -2.926792   -3.912148   -3.636252
H     -6.068242   -4.422506   -0.817874
H     -1.618028   -2.680015   -2.005705
H     -4.778451   -3.183331    0.847859
H     -1.647935    3.549450    2.607125
H     -0.073145    2.708387   -1.248321
H     -1.246214    5.914634    2.227923
H      0.334273    5.152896   -1.619695
H      3.878694   -1.656002    2.741344
H      5.867931   -2.349363    1.521957
H     -2.364677    1.809192   -0.851428
H     -3.127727    0.804872    0.435641
H     -0.775259    0.127503   -1.437413
H     -2.429526   -0.478575   -1.592586
H      2.898842    1.025611   -0.345800
H     -2.973665   -1.518941    1.254106
H     -1.811709   -2.846545    1.199263
H     -1.035926   -0.720951    2.008977
H      0.412818   -1.496003    1.177643
H      1.447523    1.937439    1.962379
H      0.415955    0.752606    2.917466
H      5.675208   -1.489648   -2.853526
H      7.008198   -0.217895   -2.776879
H      0.614356    0.719166   -0.100989
H     -1.570452    1.400167    1.951458
