51

C      1.123941    1.194924    2.686799
C     -0.229151    0.990428    2.656865
C      2.003878    0.515029    1.835909
C      6.581301    1.639929   -0.487994
C     -5.941043   -1.134032   -0.736571
C     -3.994473    0.259158   -1.067651
C      5.393462    1.473992    0.415751
C     -6.788632    0.061735   -0.847116
C     -4.899068    1.419745   -1.041556
C     -2.163264   -0.166992    1.693397
C      5.712222   -0.405584   -1.182685
C     -4.080408   -1.280144    0.778735
C     -1.720950   -1.805665   -0.105467
C      3.586441   -1.173899   -0.286945
C     -2.591554   -1.046802    0.815546
C     -0.703619    0.073797    1.741719
C      4.245188   -0.002121   -0.949085
C      1.551563   -0.399475    0.917769
C      0.135169   -0.602343    0.899468
N      6.383443    0.798310   -1.664685
N     -4.537602   -0.934828   -0.541226
O     -6.214735    1.224399   -1.240044
O      4.227770    1.137768   -0.235065
O      2.281856   -1.110447    0.045213
O     -0.377929   -1.504014    0.005027
H      1.535958    1.915888    3.401027
H     -0.936589    1.487069    3.287435
H      3.048980    0.715887    1.951655
H      7.515929    1.296016    0.036775
H      6.768545    2.671669   -0.805205
H     -6.285317   -1.833702    0.077271
H     -6.051643   -1.740875   -1.678159
H     -3.068358    0.540067   -0.484269
H     -3.617563    0.086905   -2.111411
H      5.628867    0.790412    1.265160
H      5.213376    2.484683    0.885530
H     -7.254066    0.253613    0.167098
H     -7.675014   -0.124512   -1.509386
H     -4.764969    1.961281   -0.058552
H     -4.527724    2.169918   -1.801047
H     -2.817283    0.363789    2.353464
H      5.795377   -1.208356   -1.931086
H      6.183413   -0.727273   -0.238148
H     -4.218051   -2.348393    1.017617
H     -4.595458   -0.698909    1.558885
H     -2.100098   -1.537841   -1.143862
H     -1.916216   -2.910453    0.052946
H      3.736673   -2.110459   -0.934644
H      4.270369   -1.414637    0.598222
H      3.842118    0.134830   -1.995971
H      7.304941    0.560518   -2.106417
