47

C     -5.142856   -0.645580    1.379220
C     -4.385410    2.911816   -0.312617
C      1.443549   -2.798953    0.246038
C      0.162257   -2.305642    0.176477
C      2.765874    3.725186   -1.492253
C      2.619441    4.274652   -0.318379
C      4.538292   -0.201366   -0.292700
C     -2.565425   -1.304478    0.038161
C     -1.739156    0.870160   -0.388790
C      2.482493   -1.913829    0.063077
C      4.837164   -1.520957   -0.052193
C     -3.675304   -0.447150   -0.522053
C     -3.242094    0.939128   -0.176534
C     -0.042193   -0.966652   -0.069385
C      3.765160   -2.388732    0.128654
C      2.275115   -0.570747   -0.183421
C      6.194133   -2.031028    0.018082
C      3.071822    1.662666   -0.613558
N     -4.972860   -0.801576   -0.030070
N      2.983821    2.436236   -1.522708
N      1.008127   -0.145587   -0.240524
N     -1.376726   -0.506241   -0.133369
N      3.290091    0.293802   -0.362645
O      3.965628   -3.597315    0.350162
O      7.142618   -1.232338   -0.145871
O      6.422925   -3.363275    0.259778
O     -3.778165    1.876743   -1.056211
S      2.803851    2.859884    0.833880
H     -5.600973   -1.580606    1.784638
H     -4.250448   -0.323602    1.927660
H     -5.911868    0.151969    1.536612
H     -3.635513    3.395997    0.330114
H     -5.131721    2.425830    0.350440
H     -4.817808    3.669499   -0.979095
H      1.624442   -3.865548    0.441582
H     -0.677220   -2.987977    0.318246
H      2.714110    4.299837   -2.462295
H      2.421435    5.348107    0.071469
H      5.371386    0.473578   -0.433576
H     -2.536560   -2.234046   -0.591655
H     -2.738024   -1.634600    1.066153
H     -1.534265    1.052152   -1.472127
H     -1.195745    1.581022    0.263502
H     -3.674001   -0.557962   -1.612793
H     -3.410926    1.214942    0.880638
H     -5.210650   -1.750198   -0.384770
H      7.342178   -3.787220    0.286372
