57

C      7.080809    1.445143   -0.157558
C      6.394356    0.637070   -1.059999
C      6.391914    2.263624    0.691812
C      5.008299    0.676689   -1.082059
C      5.021236    2.302577    0.669774
C     -1.421138   -2.743078   -1.012092
C     -0.012880   -3.368536    0.762199
C     -2.057556   -3.963603   -0.946762
C     -0.631701   -4.600775    0.851968
C     -4.018472    0.655740    1.072445
C     -5.343148    1.020132    0.982916
C      1.793929   -1.293856   -0.478099
C      2.615323   -0.639047    0.626154
C     -3.616610    1.697292   -1.058466
C      2.845159    1.562461   -0.228352
C      0.869731    0.971193    0.961268
C     -1.345687   -0.082366    1.259270
C     -6.901942    3.161406   -1.485529
C      4.327060    1.497997   -0.229205
C     -0.388161   -2.419282   -0.162081
C      0.136873   -0.341863    1.080126
C     -1.665579   -4.905218   -0.010083
C     -3.152348    0.995106    0.049011
C      0.311396   -1.109165   -0.214161
C     -5.829809    1.716655   -0.103859
C     -4.944927    2.038696   -1.103250
F     -2.313444   -6.097824    0.028119
N      2.271003    0.735851    0.792201
O     -1.833638    0.626360    0.149380
O     -7.092737    2.209570   -0.461742
O     -5.673871    2.723447   -2.059464
H      8.167060    1.406698   -0.148272
H      6.960545   -0.000938   -1.720781
H      6.916734    2.906279    1.408657
H      4.507249    0.048481   -1.782333
H      4.492383    2.963904    1.357442
H     -1.756400   -2.034158   -1.757652
H      0.794533   -3.167679    1.456255
H     -2.855674   -4.164015   -1.632365
H     -0.315237   -5.318592    1.583768
H     -3.663886    0.110275    1.935755
H     -6.030176    0.766353    1.765917
H      2.102968   -0.812218   -1.418442
H      2.034367   -2.359723   -0.489162
H      3.672529   -0.770363    0.369454
H      2.469191   -1.180001    1.595085
H     -2.916540    1.945894   -1.837641
H      2.507493    2.618434   -0.171432
H      2.492259    1.200053   -1.237486
H      0.446090    1.524464    0.087937
H      0.668469    1.596752    1.859443
H     -1.556412    0.481945    2.192268
H     -1.875738   -1.043250    1.332007
H     -7.696446    3.139847   -2.245584
H     -6.726931    4.182530   -1.068959
H      0.485186   -0.910812    1.965623
H     -0.147056   -0.502556   -1.017803
