35

C     -3.839538   -1.352493   -0.566877
C     -4.144882   -0.527680   -1.625745
C     -2.753179   -1.028934    0.194714
C     -3.365976    0.576600   -1.884455
C      2.021652   -1.716632    1.477313
C      3.371186   -0.253848   -1.714077
C      1.243739   -0.407840    1.733569
C      4.551327   -0.907295   -1.733796
C      1.129688    0.216915   -0.587390
C      2.496457   -0.472767   -0.697034
C     -1.933821    0.091517   -0.039092
C     -2.247960    0.902725   -1.094974
C      2.840901   -1.330443    0.247112
C     -0.790336    0.361599    0.850772
C     -0.672972    1.745545    1.335942
Cl    -1.279697    2.298275   -1.475842
N     -1.657251    2.539554    1.258094
N      0.428776   -0.291407    0.510035
O      0.512593    2.171114    1.878260
S      4.466323   -1.930355   -0.208502
H     -4.424313   -2.246069   -0.310214
H     -4.996733   -0.769997   -2.229060
H     -2.514074   -1.692251    1.039014
H     -3.568409    1.253394   -2.705025
H      2.694544   -1.898557    2.333406
H      1.341899   -2.533455    1.238099
H      3.162878    0.463152   -2.565551
H      0.557449   -0.480901    2.571294
H      1.983055    0.394613    1.766830
H      5.385554   -0.904632   -2.407411
H      1.336494    1.294459   -0.450288
H      0.553949   -0.019756   -1.516033
H     -1.105678   -0.193069    1.831851
H     -1.578996    3.507070    1.596217
H      0.795350    3.141849    1.948844
