50

C     -4.207788   -2.477662   -0.268485
C      6.323798   -0.819145    1.082834
C      6.374725    0.008899   -0.010856
C     -1.980706    3.587810   -0.468402
C      5.127522   -1.256677    1.553760
C     -1.456438    2.384408   -0.884000
C     -2.476533    3.751112    0.793998
C      5.210011    0.403244   -0.640407
C     -1.709675   -0.234503   -1.840969
C     -3.077196   -0.587759   -1.241947
C      2.715817   -1.294441    1.380310
C      0.268132   -1.324351    1.196578
C     -1.919303    1.489423    1.226365
C      0.508681    0.467326   -1.162952
C     -2.048930   -1.858989    0.466276
C      3.954898   -0.871854    0.935399
C      1.579868   -0.864289    0.704335
C     -1.415699    1.277889   -0.016775
C     -0.743712   -1.174310    0.115925
C     -2.444835    2.687206    1.651382
C      3.993329   -0.046142   -0.156452
C      1.644180   -0.048027   -0.372613
C     -0.845291    0.091097   -0.597584
N      2.867958    0.350122   -0.787306
N     -2.942957   -1.888467   -0.665821
O     -2.938372    2.803119    2.951924
H     -3.974649   -3.555767   -0.038494
H     -4.910638   -2.422047   -1.098626
H     -4.614216   -2.041273    0.658263
H      7.285092   -1.094521    1.536046
H      7.293668    0.392268   -0.433434
H     -2.018246    4.455469   -1.137470
H      5.066111   -1.908097    2.413500
H     -1.090343    2.363579   -1.891606
H     -2.898726    4.682995    1.163208
H      5.196224    1.049574   -1.497624
H     -1.255078   -1.147537   -2.279770
H     -1.775659    0.583711   -2.543325
H     -3.269956    0.144657   -0.406109
H     -3.893983   -0.461068   -1.948597
H      2.644453   -1.951256    2.244466
H      0.388175   -2.445196    1.355120
H      0.011101   -0.934089    2.169046
H     -1.901190    0.681892    1.905861
H      0.653770    0.136865   -2.200659
H      0.658326    1.583664   -1.186337
H     -1.782258   -2.948304    0.641645
H     -2.510296   -1.550509    1.398087
H     -0.335706   -1.882161   -0.695805
H     -3.327461    3.712109    3.246354
