35

C     -2.073701   -0.375420   -2.617510
C     -4.922216    0.076082    1.532866
C     -4.744189    1.222517    0.788938
C     -4.039895   -0.962248    1.317571
C     -3.725313    1.330540   -0.134904
C     -3.021164   -0.853457    0.393454
C      2.089185   -0.988555    0.244590
C      2.933142    1.165907   -0.214608
C      4.339579   -0.453853    0.738175
C     -1.730478    0.379916   -1.343271
C     -2.838865    0.296693   -0.356027
C      1.873890    0.284548   -0.239301
C      3.333991   -1.386134    0.746246
C      4.176720    0.829467    0.266524
C      0.578140    0.701242   -0.762347
N      3.538931   -2.699508    1.240337
N      5.257487    1.748813    0.285145
O      0.459355    1.892223   -1.190664
O      4.779228   -3.028343    1.718029
O      2.643636   -3.557526    1.256723
O      6.480202    1.380347    0.770693
O      5.124531    2.912608   -0.138183
O     -0.519241   -0.109130   -0.821485
H     -1.942124   -1.464725   -2.464484
H     -3.154809   -0.236543   -2.880152
H     -1.508200    0.017124   -3.486977
H     -5.725253   -0.006532    2.259701
H     -5.431121    2.041291    0.951179
H     -4.162526   -1.887106    1.899817
H     -3.596947    2.247785   -0.718125
H     -2.319623   -1.680171    0.222849
H      1.303066   -1.729297    0.254838
H      2.806287    2.173417   -0.584591
H      5.317253   -0.714249    1.115083
H     -1.578957    1.432277   -1.645597
