92

C     -2.901693    4.719044    1.070219
C     -4.520623    4.929645   -0.744567
C     -1.677839   -2.297209   -1.267047
C      1.635237    4.438479   -0.288092
C      2.235718    4.051643    2.030737
C      9.182874   -3.958813   -1.572848
C     -8.521414   -4.134538    0.404438
C     -7.685875   -3.486239    1.304610
C     -8.051300   -4.315917   -0.875454
C      0.090947   -1.141011    0.902982
C     -6.431438   -3.036673    0.942921
C     -6.805432   -3.864959   -1.220033
C     -1.317698   -0.693912    1.179772
C      0.853227   -2.101243    1.283652
C      6.576148   -1.049227   -0.119381
C      7.437445   -2.018273   -0.605665
C     -2.676338    3.402066   -1.072476
C      4.801633   -1.957949   -1.383689
C      4.303720    0.041817    0.022428
C      2.142620    2.108927    0.462453
C     -3.045358    4.686410   -0.412979
C     -2.661829   -1.208174   -0.866564
C      5.246661   -1.013001   -0.507294
C     -5.962246   -3.219562   -0.340449
C      5.663890   -2.919729   -1.864040
C      3.711355   -0.562067    1.275024
C     -1.960349   -0.100848   -0.103173
C      6.995067   -2.977879   -1.492726
C     -1.225235    2.985559   -0.846346
C      2.251610   -2.513140    0.982937
C     -3.827177   -1.780109   -0.114940
C     -4.645705   -2.772414   -0.800019
C      2.750658    0.278025    1.981121
C     -1.052853    1.680375   -1.588858
C      0.077211    3.259367    1.272393
C      1.470762    3.450100    0.836693
Cl     5.112115   -4.150445   -2.996906
N      2.158951    1.318986    1.624190
N      3.333551   -1.899342    0.987501
O      2.460751   -3.889645    0.608889
O      2.450583   -0.179500    3.290658
O     -0.952351    1.789577   -2.838135
O     -0.207018    3.594579    2.451902
O      7.833363   -3.964571   -1.999920
O     -1.008373    0.460965   -0.948533
O     -0.903638    2.747033    0.478755
O     -3.643923   -3.154698    0.257288
H     -3.801901    5.190090    1.511272
H     -2.856409    3.682025    1.507651
H     -2.050226    5.342285    1.417406
H     -4.785821    4.582678   -1.748876
H     -5.100914    4.450621    0.071072
H     -4.684722    6.029813   -0.612033
H     -1.596128   -3.015449   -0.431453
H     -0.699106   -1.804095   -1.504681
H     -2.093542   -2.843398   -2.142409
H      0.890023    5.221586   -0.194340
H      1.730611    3.965517   -1.285727
H      2.629361    4.942740   -0.129932
H      3.096034    4.662740    1.673562
H      2.571909    3.201685    2.658660
H      1.526180    4.656401    2.607592
H      9.718265   -3.034184   -1.890697
H      9.726416   -4.838169   -1.964737
H      9.230091   -3.946129   -0.445694
H     -9.496971   -4.491995    0.660748
H     -8.060283   -3.349577    2.299673
H     -8.664393   -4.819324   -1.626657
H      0.392308   -0.289546    0.171434
H     -5.772305   -2.529243    1.639351
H     -6.463281   -4.025905   -2.245847
H     -1.210226    0.203596    1.861077
H     -2.063318   -1.319819    1.573597
H      0.528697   -2.917649    2.048311
H      6.929747   -0.285299    0.587068
H      8.470975   -2.045802   -0.303575
H     -2.825580    3.559461   -2.175550
H     -3.391826    2.636431   -0.780990
H      3.757826   -1.928117   -1.686734
H      3.581567    0.220940   -0.773750
H      4.974251    0.897224    0.255067
H      3.140881    2.413751    0.084952
H      1.571292    1.717927   -0.400005
H     -2.465836    5.555584   -0.815101
H     -3.037507   -0.756767   -1.804791
H      4.600185   -0.647003    1.978776
H     -2.738989    0.593061    0.259028
H     -0.629187    3.781365   -1.335412
H     -4.228758   -1.153518    0.688478
H     -4.316505   -3.125409   -1.790580
H      3.137893   -4.138540   -0.107975
H      1.738831    0.215905    3.861349
