34

C     -0.740276   -1.832340    1.226345
C      3.708097    1.498449    0.945132
C      2.595563    1.173748    1.677996
C      3.874774    0.894825   -0.283819
C     -2.471545    1.801440   -0.301701
C     -3.507404    0.733234   -0.243818
C      1.666621    0.273480    1.210434
C      2.943517    0.008497   -0.725709
C     -1.207071    1.041913    0.140859
C     -2.722471   -0.538062   -0.531943
C     -0.540561   -1.296096   -0.173952
C      1.803339   -0.339461   -0.000816
C      0.897595   -1.277148   -0.603873
N     -1.327647   -0.179024   -0.526398
O      0.849018   -1.155742   -2.012880
H      0.265029   -2.214507    1.564044
H     -1.218317   -1.140550    1.910739
H     -1.365943   -2.775044    1.246080
H      4.452347    2.215325    1.310175
H      2.475006    1.664155    2.659622
H      4.759578    1.161904   -0.853473
H     -2.287936    2.100542   -1.356601
H     -2.646874    2.662897    0.347438
H     -4.306362    0.850914   -1.005852
H     -3.970948    0.729343    0.757841
H      0.833185    0.064842    1.845598
H      3.096287   -0.450049   -1.690035
H     -0.376204    1.706450   -0.240520
H     -1.262346    1.032653    1.232028
H     -3.006579   -1.266660    0.225002
H     -2.956015   -0.862367   -1.573923
H     -0.971138   -2.138524   -0.830317
H      1.283993   -2.317096   -0.426527
H      1.381689   -1.831943   -2.464866
