67

C      7.944735   -0.322719   -0.398954
C     -1.427312    1.461606    4.724877
C     -2.241431    2.190088    3.875246
C     -0.713160    0.418813    4.183691
C     -2.344445    1.894735    2.532134
C     -0.818231    0.118994    2.819523
C     -7.198918   -0.170391   -0.724801
C     -5.880084   -0.011572   -0.365174
C     -8.836001   -0.222176   -2.678908
C      4.606039    0.701240   -0.837285
C      5.377607   -1.398673    0.264257
C     -8.663289   -0.065455   -4.039434
C      6.091952    0.935276   -1.092471
C      6.030966   -1.473006   -1.102777
C      2.322722    0.476306    1.128659
C      2.649443   -1.756784    0.214655
C      1.099233    0.666375    0.284727
C      1.186678   -1.844994   -0.028660
C     -5.369881    0.287357   -2.684726
C     -7.608259   -0.102515   -2.050457
C     -1.627476    0.850424    1.996990
C     -4.964367    0.219908   -1.370221
C      4.495984   -0.195516    0.352742
C     -6.694594    0.129165   -3.059919
C     -1.751289    0.506822    0.547041
C     -3.572616    0.388695   -1.000904
C     -0.951040   -0.704000    0.296634
N     -7.349590    0.146500   -4.235723
N     -3.170881    0.328611    0.232455
N      6.817274   -0.280124   -1.341380
N      3.177545   -0.569347    0.727429
N      0.451551   -0.613226    0.184771
O     -2.646482    0.621872   -2.005176
O     -1.570610   -1.800459    0.188010
H      8.841778    0.131939   -0.867522
H      8.179387   -1.395573   -0.213673
H      7.609787    0.192586    0.514364
H     -1.385323    1.740968    5.780346
H     -2.802862    3.013446    4.310346
H     -0.071017   -0.173171    4.796344
H     -2.980225    2.462276    1.862291
H     -0.249107   -0.703803    2.435835
H     -7.940871   -0.353445    0.046726
H     -5.571216   -0.067709    0.689051
H     -9.768512   -0.409011   -2.164019
H      4.161263    1.680191   -0.646581
H      4.206948    0.256977   -1.771303
H      6.181027   -1.415232    1.061005
H      4.835412   -2.352182    0.418685
H     -9.458573   -0.109140   -4.795719
H      6.138633    1.535586   -2.041154
H      6.513046    1.544899   -0.266432
H      5.226602   -1.609728   -1.846376
H      6.712028   -2.343255   -1.087045
H      2.935391    1.415167    1.183827
H      1.991203    0.274155    2.178410
H      3.173931   -2.132115   -0.719169
H      2.890335   -2.577855    0.959986
H      1.408610    0.988413   -0.739846
H      0.499561    1.477292    0.684451
H      0.960966   -2.129995   -1.099698
H      0.683669   -2.662796    0.559701
H     -4.662517    0.470119   -3.503955
H      4.895057    0.418214    1.218984
H     -1.426149    1.377302   -0.095079
H     -6.902376    0.303221   -5.180083
H     -1.677656    0.340424   -1.915512
