92

C     -4.632345   -4.718614    1.679830
C     -2.534465   -5.742738    0.901783
C     -3.779488    0.568158   -3.193675
C      2.045426   -4.339542    1.713277
C      1.330083   -3.946411   -0.549040
C      8.417722    5.043765    2.233367
C     -6.501545    5.667009    1.286359
C     -5.153962    5.379779    1.237869
C     -7.375687    4.941875    0.509890
C      0.029543    1.090047   -0.988874
C     -4.721264    4.370249    0.409062
C     -6.920442    3.918208   -0.327575
C     -1.101818    0.875152   -1.967014
C      0.932276    1.983932   -0.814869
C      5.836639    2.567704   -0.114510
C      6.683383    3.373736    0.655542
C     -3.212636   -3.588184   -0.040927
C      6.711272    0.696594    0.977230
C      4.926758    0.371354   -0.790181
C      2.071941   -2.048606    0.857159
C     -3.229311   -4.439051    1.177605
C     -3.579157    0.545421   -1.712231
C      5.839572    1.197310    0.038987
C     -5.572511    3.631402   -0.375952
C      7.550573    1.463241    1.743676
C      3.563810    0.235053   -0.104419
C     -2.190497   -0.013320   -1.342355
C      7.539544    2.825041    1.583293
C     -1.746934   -3.377116   -0.466147
C      2.049436    2.192137    0.156491
C     -3.764952    1.915486   -1.086696
C     -5.094396    2.541549   -1.269744
C      2.725553   -0.590933   -0.969436
C     -1.761850   -2.507825   -1.716012
C     -0.065016   -3.104250    1.362033
C      1.263882   -3.354320    0.814982
Cl     8.607335    0.721686    2.895322
N      2.090322   -1.578403   -0.511618
N      3.059777    1.448413    0.379352
O      2.058291    3.380502    0.989213
O      2.654712   -0.253344   -2.301379
O     -1.336755   -3.124911   -2.730484
O     -0.176234   -3.280843    2.630731
O      8.388426    3.648348    2.354198
O     -2.195045   -1.301143   -1.561146
O     -1.105908   -2.710853    0.577797
O     -3.925943    2.972930   -1.978139
H     -4.941683   -3.923721    2.385881
H     -5.353834   -4.901676    0.870733
H     -4.561037   -5.686697    2.257415
H     -2.542594   -6.000836   -0.180064
H     -2.972863   -6.549722    1.499649
H     -1.454994   -5.646985    1.176683
H     -2.750499    0.520495   -3.655822
H     -4.369643    1.416505   -3.560530
H     -4.304561   -0.359704   -3.515406
H      2.138734   -3.956313    2.735842
H      3.070129   -4.464568    1.306845
H      1.527740   -5.319802    1.655341
H      0.996979   -3.306495   -1.357281
H      0.925433   -4.973146   -0.524639
H      2.436736   -4.107046   -0.757684
H      9.437352    5.355915    2.599536
H      8.260328    5.442557    1.231880
H      7.665050    5.516801    2.912675
H     -6.836129    6.459842    1.937784
H     -4.443462    5.945583    1.847039
H     -8.425286    5.197962    0.576720
H     -0.105180    0.125986   -0.360425
H     -3.645675    4.163168    0.390421
H     -7.652191    3.383607   -0.912679
H     -0.802124    0.338667   -2.869726
H     -1.664858    1.770362   -2.262006
H      1.075230    2.928716   -1.474730
H      5.199281    3.077324   -0.815787
H      6.646805    4.458352    0.502736
H     -3.677132   -4.145720   -0.864973
H     -3.735145   -2.630072    0.057930
H      6.720555   -0.377509    1.103085
H      5.293375   -0.641618   -0.977068
H      4.723368    0.944846   -1.719315
H      1.550900   -1.362404    1.537614
H      3.079596   -2.219271    1.282361
H     -2.714523   -3.952842    2.052858
H     -4.343639   -0.114153   -1.266849
H      3.800388   -0.397646    0.802167
H     -2.108329    0.218661   -0.236592
H     -1.363318   -4.375597   -0.648387
H     -3.303189    2.051714   -0.110226
H     -5.854956    2.011781   -1.845546
H      2.414212    3.369058    1.916054
H      2.266539   -0.830037   -3.031238
