109

C      1.313941    2.627417   -0.823863
C     -7.032011   -1.029616    2.394111
C      9.545936   -1.262468    0.976032
C      8.450861   -3.312280    0.238542
C      8.025329   -1.168089   -0.901549
C     -2.380915    3.095767    2.134284
C     -0.328009    2.104114    2.897326
C     -4.682001    3.666022   -0.381257
C      5.218941    2.268695   -2.687831
C     -3.241158   -5.775003    0.281058
C      5.070972    2.151279   -1.330944
C      5.190176    1.164783   -3.483171
C     -3.696110   -5.411027    1.526329
C     -2.877180   -4.783616   -0.599601
C      4.891100    0.898113   -0.770309
C      5.010202   -0.093785   -2.926028
C     -3.785646   -4.059301    1.886510
C     -2.971714   -3.455754   -0.227878
C     -5.084284    1.252153   -2.838041
C     -0.883924    0.022887    0.497536
C     -6.394371    1.677257   -0.864888
C      0.455837    1.896666    0.046161
C     -6.513521    0.067123    1.574252
C      4.861458   -0.212175   -1.563186
C     -3.422891   -3.067139    1.009323
C      0.599310    0.488559    0.606706
C     -4.225564    2.348776   -2.493304
C     -5.576627    0.297943   -1.812229
C     -0.706943    2.449879    0.443200
C      4.656943   -1.549439   -0.895362
C     -1.158975    3.183467   -0.714364
C      3.169922   -1.880096   -0.889253
C     -3.833250    1.264327   -0.349925
C     -2.546035    3.289342   -1.257760
C     -3.245966    0.732949    0.816508
C     -3.533257   -1.679930    1.432594
C      2.393077   -1.053821    0.065363
C      5.901798   -1.899692    1.272041
C      8.222417   -1.831420    0.433265
C     -1.313644    2.144735    1.761576
C     -3.830906    2.584233   -1.003610
C     -5.315314    0.844574   -0.372770
C     -1.847439    0.769749    1.357250
N      5.321062   -1.736517    0.261590
O     -6.716008    1.245294    1.866823
O     -3.051850    2.234450   -3.295959
O     -0.247758    3.752287   -1.263500
O      2.672352   -1.642681   -2.149723
O     -2.525933    4.196886   -2.111789
O     -3.952698   -1.376628    2.570894
O      2.698395   -1.034014    1.284632
O      5.316916   -2.468028    2.447340
O     -1.865909    0.125668    2.598410
O     -6.911320    0.458378   -1.443267
O      1.311931   -0.278553   -0.327858
O     -3.171699   -0.716787    0.568731
O     -5.782022   -0.167994    0.438783
O      7.260955   -1.533111    1.395606
H      1.808850    3.563131   -0.480145
H      2.258179    2.024007   -0.644341
H      1.358373    2.399361   -1.913270
H     -8.144633   -1.049558    2.454268
H     -6.675976   -2.028049    2.003098
H     -6.677265   -0.986009    3.446392
H     10.029397   -1.959925    1.672231
H      9.306858   -0.332678    1.521131
H     10.211384   -0.986897    0.120018
H      7.740143   -3.775556   -0.465775
H      9.471722   -3.451478   -0.165737
H      8.411099   -3.814929    1.238078
H      7.629299   -0.154981   -0.733695
H      9.029423   -1.022436   -1.403065
H      7.451509   -1.786653   -1.590724
H     -2.274917    4.052470    1.583379
H     -2.326975    3.414697    3.222436
H     -3.406494    2.737255    2.022048
H     -0.290978    1.132915    3.433252
H     -0.623638    2.813866    3.737714
H      0.680084    2.511709    2.630692
H     -4.046850    4.505403    0.069907
H     -5.288347    3.364325    0.468065
H     -5.227606    4.289057   -1.154847
H      5.361988    3.228016   -3.171009
H     -3.171589   -6.839100    0.000494
H      5.089219    3.005258   -0.674267
H      5.302376    1.211101   -4.556439
H     -3.994304   -6.180715    2.250939
H     -2.522893   -5.094328   -1.571838
H      4.769253    0.773218    0.316991
H      4.982414   -1.000043   -3.537621
H     -4.145548   -3.792035    2.870244
H     -2.671408   -2.694125   -0.958551
H     -5.984509    1.571424   -3.453794
H     -4.601069    0.564174   -3.617134
H     -0.905661   -1.054244    0.759828
H     -1.089795    0.125819   -0.594331
H     -6.405232    2.354758   -1.682558
H     -7.178893    2.083151   -0.145432
H      0.997352    0.414891    1.581432
H     -4.624986    3.329683   -2.813769
H     -5.335593   -0.765485   -1.917028
H      5.063736   -2.274761   -1.684723
H      3.095202   -2.954618   -0.593821
H     -3.423748    0.599354   -1.225333
H     -3.948892    0.745369    1.722061
H     -2.787021    1.309940   -3.422048
H      1.699741   -1.372059   -2.131219
H      4.415914   -2.927047    2.387073
H     -1.295674   -0.651445    2.656473
