109

C      1.594532   -2.649803    2.234424
C     -6.360651    1.684401   -1.195951
C      7.704535    1.738232   -1.801885
C      8.738226    3.953222   -1.927876
C      7.729655    3.227938    0.170282
C     -1.252441   -0.695682    4.422994
C     -2.871399   -2.186616    3.581714
C     -4.111016   -4.355650    1.280116
C      3.125864   -0.981386   -2.665246
C     -1.056969    3.241067   -3.796353
C      2.092254   -0.099176   -2.473100
C      4.307237   -0.833947   -1.989608
C     -0.759126    1.921557   -3.531502
C     -1.902579    3.955291   -2.982652
C      2.251742    0.964090   -1.572808
C      4.446069    0.212934   -1.111794
C     -1.298553    1.271009   -2.441166
C     -2.432509    3.271282   -1.888233
C     -4.811183   -3.843499   -1.372493
C     -0.660272    0.125359    1.469791
C     -5.970322   -2.097520    0.991431
C      0.546558   -1.703668    2.326737
C     -6.248112    0.227543   -0.857951
C      3.423728    1.122751   -0.892629
C     -2.147813    1.969826   -1.614141
C      0.593252   -0.179492    2.269222
C     -3.433879   -4.027909   -0.869598
C     -5.501053   -2.603791   -0.944400
C     -0.694089   -2.145897    2.449480
C      3.658931    2.235287    0.075502
C     -0.753382   -3.356553    1.662906
C      3.847857    1.712371    1.472117
C     -3.444111   -1.976001    0.405590
C     -1.866548   -3.896321    0.812535
C     -2.960911   -0.758527    0.954729
C     -2.740280    1.334349   -0.456438
C      2.627176    1.184082    2.072724
C      5.150663    3.325136   -1.466303
C      7.595726    3.152773   -1.338960
C     -1.753501   -1.360740    3.158920
C     -3.268529   -3.388744    0.563531
C     -4.934463   -1.706619    0.020006
C     -1.994833   -0.379598    2.011946
N      4.995285    2.750624   -0.323185
O     -7.224767   -0.521521   -1.071014
O     -2.527627   -3.398111   -1.707654
O      0.277977   -3.987926    1.735230
O      4.333688    2.765283    2.261554
O     -1.486205   -4.925270    0.262592
O     -3.517750    1.976156    0.233959
O      2.298413    1.614378    3.224307
O      4.044110    3.446553   -2.304264
O     -2.513217    0.723382    2.670659
O     -6.620030   -2.774879   -0.081434
O      1.742948    0.267882    1.584962
O     -2.456914    0.085922   -0.140444
O     -5.145962   -0.354101   -0.326766
O      6.405799    3.783318   -1.784984
H      2.105374   -2.878195    1.271212
H      1.864142   -3.304419    3.105224
H      2.448551   -1.921550    2.509075
H     -5.752034    1.942584   -2.073152
H     -7.414430    1.906072   -1.490519
H     -6.172887    2.338788   -0.321067
H      7.686101    1.002308   -0.958560
H      6.900162    1.517018   -2.527694
H      8.683459    1.594664   -2.300330
H      8.406521    4.351585   -2.916414
H      9.606709    3.308765   -2.154255
H      8.979873    4.822230   -1.295784
H      7.358788    4.210565    0.557763
H      7.176040    2.386953    0.657762
H      8.779072    3.134795    0.482442
H     -1.945051   -0.907662    5.316802
H     -1.350556    0.411964    4.399762
H     -0.311977   -1.095397    4.806823
H     -3.145371   -2.119046    4.688124
H     -2.553604   -3.273681    3.526362
H     -3.820549   -2.109926    3.086478
H     -3.568820   -5.374659    1.155735
H     -5.068622   -4.667531    0.818510
H     -4.252630   -4.332037    2.338861
H      3.007869   -1.804182   -3.359765
H     -0.645792    3.774259   -4.647282
H      1.153225   -0.224042   -3.020605
H      5.112559   -1.526138   -2.143209
H     -0.089060    1.424008   -4.216820
H     -2.163965    4.986413   -3.149934
H      1.419104    1.648475   -1.437815
H      5.380799    0.347887   -0.564332
H     -1.049809    0.222611   -2.253622
H     -3.103598    3.881721   -1.259353
H     -5.507640   -4.713723   -1.163394
H     -4.712662   -3.914946   -2.503589
H     -0.629433    1.220832    1.349766
H     -0.543672   -0.433376    0.521289
H     -5.780203   -2.659911    1.878491
H     -6.720342   -1.287655    1.284067
H      0.640167    0.307274    3.217103
H     -3.170881   -5.107350   -0.809740
H     -5.951100   -2.141454   -1.880062
H      2.896660    3.001849   -0.015426
H      4.618887    0.922478    1.473485
H     -3.041392   -1.877123   -0.703236
H     -3.828005   -0.093239    1.211958
H     -2.921640   -3.015915   -2.515240
H      4.502157    3.572138    1.720120
H      3.155030    3.760304   -1.896097
H     -3.476754    0.729565    2.750952
