58

C     -4.868745    0.003971   -1.511723
C     -4.927829    1.092385   -0.484711
C      6.366518    1.132552   -1.105376
C      6.419847   -0.047418    0.945695
C      0.365761   -1.403904   -0.007416
C     -0.255645    0.844261   -0.593972
C      1.587863   -0.894060   -0.870529
C      0.923572    1.119031    0.314371
C      7.592068    1.663345   -0.833597
C      7.657629    0.506488    1.189987
C      4.418984   -0.300144   -0.538592
C     -4.333610    2.122226    1.500016
C     -5.409784   -2.244894   -0.856962
C     -4.001723   -3.632860    0.475717
C     -2.351164    1.759516    2.787581
C      5.747166    0.259680   -0.217860
C     -0.764834   -0.625447   -0.445416
C     -4.443651   -1.292749   -0.837829
C     -3.916646    1.165503    0.552885
C     -3.547446    2.401238    2.595575
C     -5.202694   -3.436779   -0.198015
C     -2.997115   -2.663315    0.505975
C      3.374211    0.591305   -0.009493
C     -3.214825   -1.500032   -0.152196
C     -2.133684   -0.521121   -0.105352
C     -2.681960    0.537929    0.800653
Br    -4.054155    3.685392    3.915674
Br    -1.500347   -3.045444    1.612740
Cl    -6.440941   -4.678694   -0.215832
N     -1.969856    0.846485    1.869482
N      2.020956    0.295400   -0.175218
N      8.210437    1.341457    0.303107
O      3.728289    1.637631    0.602329
O      9.457449    1.917569    0.518576
H     -4.136199    0.292694   -2.286758
H     -5.876124   -0.171810   -1.897698
H     -5.924592    0.974216    0.039026
H     -5.038010    2.051564   -1.042481
H      5.813201    1.363993   -2.026591
H      5.969137   -0.734373    1.679289
H      0.392351   -2.476038   -0.413413
H      0.790988   -1.293974    0.983713
H     -1.046699    1.568091   -0.378002
H      0.103094    1.046006   -1.620209
H      2.357851   -1.677729   -0.894480
H      1.191190   -0.681248   -1.866735
H      1.208675    2.162762    0.132624
H      0.743115    0.986859    1.373857
H      8.035436    2.339768   -1.556354
H      8.217980    0.284871    2.101265
H      4.309437   -0.495941   -1.626352
H      4.371102   -1.307313   -0.050163
H     -5.264870    2.656342    1.398330
H     -6.348352   -2.084517   -1.384686
H     -3.841203   -4.563081    0.990485
H     -1.723244    1.969876    3.644711
H     -0.775670   -0.952499   -1.582466
H     -2.382691    0.104978   -1.119902
