66

C     -1.974579    0.093488   -2.158430
C      5.960279   -0.561638   -1.029124
C      7.256830   -0.873201   -0.371836
C      5.008825   -1.708058   -1.048170
C     -2.910984    3.346521    0.189638
C      0.925527    0.756616   -0.486177
C     -4.040025    4.129216   -0.123566
C      1.789966    1.203061    0.396335
C      7.234274   -1.992090    0.625091
C     -0.530672    2.703379   -0.147756
C     -1.689372    4.472535   -1.461215
C     -3.242014   -2.007043   -0.365604
C     -3.673645   -0.958584    1.706109
C     -5.019034   -2.803959    1.002023
C     -1.717258    3.494964   -0.463493
C     -2.905051   -1.030243    0.526852
C     -4.275010   -2.890598   -0.157766
C     -4.702093   -1.830466    1.922796
C     -0.327746    1.457389   -0.913738
C     -3.968188    5.082557   -1.115371
C     -2.777995    5.245608   -1.782384
C      4.115349   -1.730535    0.172482
C      2.987190    0.371969    0.709433
C      4.887739   -1.791401    1.447834
C     -1.911319    0.008940    0.327468
C     -4.622689   -3.948252   -1.131187
C     -5.507627   -1.699160    3.175283
Cl    -5.385926    6.072326   -1.510691
Cl    -2.696843    6.460516   -3.034934
F     -5.911041   -3.715172   -1.571084
F     -3.792036   -3.954046   -2.231351
F     -4.632039   -5.202766   -0.503732
F     -6.456647   -2.690526    3.294640
F     -6.205702   -0.486070    3.036123
F     -4.731548   -1.734175    4.291350
N      6.150956   -1.897406    1.590233
N      3.146301   -0.717628    0.131602
N     -1.433095    0.512168   -0.893418
O      3.877123    0.850453    1.635195
O      4.075682   -1.722003    2.575715
O     -1.439257    0.504589    1.437527
H     -1.394584   -0.691279   -2.657715
H     -3.033559   -0.175382   -2.148797
H     -1.922859    0.970332   -2.895005
H      5.495326    0.344140   -0.544620
H      6.190563   -0.226897   -2.075628
H      7.962408   -1.223758   -1.192970
H      7.689685    0.070037    0.037075
H      5.534117   -2.663342   -1.200684
H      4.299154   -1.564932   -1.914105
H     -3.029409    2.626788    0.962408
H      1.160348   -0.218819   -0.945429
H     -4.984308    4.013747    0.393553
H      1.672472    2.128130    0.899382
H      8.193068   -1.937761    1.213879
H      7.256877   -2.996809    0.135781
H      0.356148    3.370844   -0.394490
H     -0.453343    2.587426    0.954807
H     -0.747436    4.592538   -1.983076
H     -2.664748   -2.145219   -1.269772
H     -3.466262   -0.214290    2.457940
H     -5.823164   -3.480985    1.166884
H     -0.121958    1.738708   -1.970940
H      3.534851   -2.721991    0.107475
H      4.871424    0.677769    1.668339
H      4.488581   -1.680273    3.503007
