70

C     -6.855776    1.170819    2.993763
C      9.285450    1.393499    0.507011
C     -5.796518    0.277302    3.558372
C     -7.882009    0.739269   -2.239010
C     -6.767181    0.204602   -2.848800
C     -8.083384    0.413935   -0.902446
C     -5.895384   -0.614830   -2.159081
C     -7.216145   -0.406413   -0.201129
C      7.318687    1.276334   -0.759105
C      8.210746   -0.743181    0.182902
C      6.232678    1.213885    0.290332
C      7.186341   -0.714629    1.299650
C      5.232749   -0.962738   -0.097484
C      3.817070   -0.481414   -0.123690
C     -5.120876   -1.817540   -0.180550
C     -0.589222   -1.153576   -0.197980
C     -6.097886   -0.935328   -0.834099
C     -1.033520   -0.255007   -1.136876
C      0.768308   -1.482828   -0.155883
C     -3.957581   -1.009996    0.453164
C      1.205611   -0.022347   -1.974699
C     -0.142388    0.319351   -2.033520
C      1.661244   -0.921715   -1.037883
C     -2.440193    0.103451   -1.208145
C     -4.549389   -0.074504    1.481998
Cl     1.372719   -2.627152    1.028918
Cl     2.272822    0.738268   -3.135350
N     -3.329365   -0.308265   -0.513595
N      8.474361    0.563961   -0.329945
N      6.006327   -0.107327    0.765773
O     -0.624287    1.216738   -2.961447
O     -2.788052    1.051624   -2.221942
O     -4.398653    1.150102    1.304064
O     -5.225619   -0.542867    2.571282
O      2.991273   -1.274680   -0.960252
Cl     0.683546    0.000000    0.000000
Cl     0.683620    0.000000    0.000000
H     -6.551539    1.514961    1.991848
H     -7.837376    0.649857    2.893671
H     -6.951376    2.083377    3.632745
H      9.807371    2.130597   -0.138828
H      8.761081    1.900487    1.314675
H     10.081080    0.749892    0.943132
H     -6.258475   -0.334116    4.373645
H     -4.993120    0.917103    4.030995
H     -8.585541    1.386661   -2.756696
H     -6.591993    0.446523   -3.890272
H     -8.955913    0.828917   -0.415257
H     -5.023538   -1.020023   -2.674094
H     -7.356065   -0.673726    0.834335
H      7.603530    2.354004   -0.856261
H      6.905169    0.976500   -1.728862
H      9.139618   -1.165774    0.617024
H      7.789861   -1.364427   -0.627739
H      5.342389    1.673591   -0.127983
H      6.525333    1.834399    1.188917
H      6.973230   -1.720514    1.658305
H      7.527546   -0.100650    2.156984
H      5.673837   -1.049731   -1.121599
H      5.231732   -1.972123    0.404303
H      3.686444    0.569344   -0.366817
H      3.407660   -0.629677    0.918787
H     -4.626801   -2.463619   -0.949496
H     -5.574192   -2.464300    0.581081
H     -1.198399   -1.631159    0.517164
H     -3.413598   -1.794468    1.035316
H     -0.025438    1.668796   -3.639973
H     -3.755477    1.322497   -2.346028
H     -0.683546    0.000000    0.000000
H     -0.683620    0.000000    0.000000
