85

C      2.514394    0.335942    2.350378
C     -5.352913   -0.274251   -0.695762
C      5.910200    4.612359    1.279791
C     -2.791003   -2.033162    3.268756
C     -1.918620   -4.345128   -2.151193
C     -0.718743    2.903818    0.677729
C     -0.694318    1.844176   -1.442163
C      5.349242    0.601825    0.799685
C      0.636622    3.289346    0.438904
C      0.664286    2.250054   -1.645484
C      5.554624    1.952068    0.971033
C      2.094825   -2.311141    3.546492
C     -4.606866    1.271690   -3.418065
C      3.317860   -1.454265    3.572730
C     -5.527775    1.448833   -2.261739
C     -2.751288    1.542800    0.017791
C      4.187176   -1.442375    0.238086
C      3.409078    0.890812   -0.601286
C     -3.579997   -0.847197   -4.251461
C     -0.159695   -1.989711    2.694062
C      0.815441   -1.440001    0.109977
C     -1.381891    2.157084   -0.291368
C      4.301942    0.058725    0.036699
C      1.165465   -1.967101    2.404005
C     -3.712364    0.070768   -3.242956
C      1.287015    2.958058   -0.677042
C      1.707559   -1.689646    1.104111
C      3.163688   -1.746222    1.261350
C     -3.488220    1.165829   -1.181812
C     -2.749610   -1.900901   -3.966754
C      4.621466    2.774138    0.321866
C     -1.008854   -1.727849    1.648456
C      3.605480    2.242087   -0.416834
C     -0.560987   -1.447922    0.331768
C     -3.077896    0.001196   -1.993992
C     -2.110235   -1.979816   -2.719553
C     -2.227595   -1.062771   -1.683932
N      3.450053   -0.730562    2.326993
N     -4.926142    1.050163   -0.992281
O     -2.552502   -2.890770   -4.937298
O      4.840063    4.134295    0.506855
O     -2.380585   -1.754694    1.965818
O     -1.312551   -3.145833   -2.651798
O      2.717653    3.260798   -0.967514
O     -1.570828   -1.233193   -0.532733
H      3.008838    1.354707    2.310215
H      1.959752    0.406796    3.338533
H      1.710797    0.260717    1.603044
H     -5.670484   -0.279298    0.386349
H     -4.581351   -1.057218   -0.846326
H     -6.254538   -0.511699   -1.294031
H      5.872687    4.275397    2.341817
H      5.900962    5.736486    1.252848
H      6.899877    4.271102    0.897897
H     -2.388080   -3.044486    3.569912
H     -2.346559   -1.321109    4.019766
H     -3.895149   -2.024791    3.386533
H     -2.922527   -4.515268   -2.614203
H     -1.278786   -5.210245   -2.416703
H     -2.033803   -4.321131   -1.066927
H     -1.045394    3.312601    1.677198
H     -0.959619    1.297757   -2.383788
H      6.075501   -0.060575    1.307448
H      0.981088    3.899351    1.321957
H      1.027434    1.920727   -2.667753
H      6.353499    2.335655    1.546549
H      1.536592   -2.312866    4.501069
H      2.452547   -3.369324    3.417309
H     -5.265359    1.033428   -4.303925
H     -4.004495    2.119256   -3.716911
H      4.243019   -2.044326    3.777654
H      3.252776   -0.719449    4.399770
H     -5.771472    2.526841   -2.162741
H     -6.508544    0.925524   -2.426245
H     -3.393778    2.118978    0.709613
H     -2.623823    0.567836    0.609369
H      5.165176   -1.819782    0.704745
H      4.147821   -2.075921   -0.643093
H      2.634976    0.478613   -1.331299
H     -4.098040   -0.736386   -5.198344
H     -0.539399   -2.203988    3.702892
H      1.168512   -1.232021   -0.969135
H      3.487884   -2.725601    1.744260
H     -3.413654    2.121474   -1.823812
H     -3.037536   -2.780118   -5.811826
