66

C      3.469397    1.165099   -1.671797
C     -5.210388    0.909325   -0.624217
C      4.242572    2.303586   -1.930801
C     -6.203053    1.871778   -0.732866
C      5.380723    0.185504   -0.657919
C     -3.820733    2.521927    0.420821
C     -1.673956   -4.609891   -0.168031
C     -3.477779   -3.352712    0.645983
C      3.406129   -0.101214    1.482733
C     -0.113895    0.918877    2.297040
C      4.036812    0.099552   -1.030882
C     -4.017733    1.250638   -0.041512
C     -2.882898   -4.575178    0.467564
C      1.908464    0.141984    1.378100
C      5.565591    2.401347   -1.564143
C     -5.986202    3.146729   -0.260466
C      1.249225    0.802815    2.376936
C      6.132434    1.330452   -0.924119
C     -4.775842    3.485788    0.327744
C     -1.054816   -3.440701   -0.624219
C      3.626528   -1.426975    0.814277
C     -2.866855   -2.206031    0.195524
C     -0.833431    0.384984    1.234012
C     -1.633234   -2.206538   -0.452158
C     -0.203659   -0.273876    0.229811
C     -0.978070   -0.918911   -0.879067
C      3.322872   -1.161616   -0.682595
C      1.201299   -0.393915    0.300455
C     -2.174351    0.005634   -1.162311
C     -2.962596    0.202401    0.074129
O     -3.482102   -5.764753    0.919363
O      6.319141    3.562179   -1.832161
O     -6.974028    4.089400   -0.370724
O      1.950447    1.346196    3.443464
O      7.469504    1.420997   -0.549698
O     -4.557084    4.780266    0.807105
O      0.148906   -3.663544   -1.250987
O      4.812841   -2.042559    1.037413
O     -3.002080   -0.595702   -2.123828
O      1.913556   -1.035313   -0.703657
O     -3.585605   -1.029298    0.428691
O     -2.201395    0.536563    1.206430
H      2.426300    1.104265   -1.970159
H     -5.408353   -0.109011   -1.013554
H      3.765492    3.114641   -2.431113
H     -7.151561    1.588439   -1.196221
H      5.931483   -0.599571   -0.160194
H     -2.839680    2.746546    0.882565
H     -1.221949   -5.583449   -0.292206
H     -4.450551   -3.313444    1.155780
H      3.720953   -0.144009    2.543564
H      3.872473    0.765383    1.029934
H     -0.675619    1.443111    3.067487
H      2.767510   -2.087090    1.153352
H     -0.383908   -1.088007   -1.772998
H      3.632519   -2.000875   -1.311356
H     -1.729209    0.957763   -1.501440
H     -4.120090   -6.301796    0.322061
H      7.296595    3.575875   -1.525971
H     -6.833579    5.051558   -0.023117
H      2.933786    1.290018    3.512421
H      7.883652    0.647954   -0.081229
H     -3.660319    5.013596    1.238781
H      0.676818   -2.965263   -1.702014
H      4.868168   -2.813125    0.428917
H     -2.785587   -0.358802   -3.041806
