64

C     -5.259521    4.001510   -0.358667
C     -5.676089   -3.011992   -1.161438
C     -4.075234    3.461692   -0.805171
C     -5.992791    3.300056    0.558863
C     -6.193314   -2.652178    0.058683
C     -4.586561   -2.319860   -1.645713
C      5.098599    1.841354    0.603475
C     -3.653666    2.244974   -0.329774
C     -5.545893    2.065340    1.028735
C     -5.612761   -1.619091    0.756005
C     -4.001322   -1.273637   -0.935790
C      3.789385    1.934282    0.247539
C      5.820585    0.737933    0.192847
C      1.994130   -0.768102   -2.380129
C      3.258383   -1.216609   -1.724927
C     -1.932068    0.457751    2.481141
C     -0.583399    0.353217    2.748278
C      1.720463    1.147654   -0.864645
C      0.561236   -1.062872   -0.419241
C      7.222430   -1.664346   -0.743018
C      1.078510   -0.070855   -1.384162
C     -4.364941    1.511048    0.593373
C     -4.510387   -0.902011    0.290127
C      3.147736    0.952600   -0.519591
C      3.848382   -0.128098   -0.923282
C     -2.471441    0.061440    1.269096
C      5.216493   -0.237150   -0.558121
C      0.240128   -0.164004    1.767513
C      7.547406   -1.837313    0.681239
C     -3.926033    0.222195    1.098493
N     -1.630171   -0.422434    0.379092
N     -0.329398   -0.536565    0.602192
O      1.499271   -0.279829    1.975975
O      6.684929   -1.764322    1.579542
O      8.856462   -2.090557    1.044306
O      5.884607   -1.359816   -0.998359
H     -5.593988    4.977748   -0.742969
H     -6.136422   -3.830374   -1.714520
H     -3.480557    4.018526   -1.541906
H     -6.927054    3.716491    0.916153
H     -7.033576   -3.149310    0.484461
H     -4.205005   -2.631549   -2.613067
H      5.580666    2.628029    1.207768
H     -2.725130    1.836766   -0.688524
H     -6.183633    1.579678    1.750717
H     -6.020960   -1.339015    1.711699
H     -3.157186   -0.769116   -1.366540
H      3.181005    2.777714    0.544251
H      6.864809    0.690689    0.480308
H      2.245421   -0.048921   -3.185562
H      1.494739   -1.651733   -2.847379
H      3.966336   -1.480216   -2.553705
H      3.117039   -2.147201   -1.115393
H     -2.597826    0.867020    3.250770
H     -0.144672    0.662362    3.700447
H      1.229085    1.589264    0.029796
H      1.704129    1.998447   -1.611278
H     -0.006549   -1.837025   -1.016029
H      1.389978   -1.668606    0.047917
H      7.912204   -0.875016   -1.149339
H      7.464562   -2.588631   -1.317372
H      0.197187    0.264691   -2.014274
H     -4.374332    0.102348    2.129523
H      9.115587   -2.604462    1.887728
