47

C     -0.093278    0.782551   -0.765315
C     -1.444948    0.581719   -0.942238
C     -4.322496    0.162938   -1.441977
C     -4.453505    0.370689    0.953996
C     -5.439981   -0.840996   -1.780407
C     -5.917284    0.445544    0.717182
C     -0.265921   -0.360634    1.292988
C      5.338480   -0.387537    0.708264
C      2.899031   -0.566724    0.646911
C     -3.686364   -0.303828   -0.183485
C      0.533131    0.300780    0.388142
C      4.040196   -0.044234    1.473691
C     -2.249411   -0.074508   -0.047897
C     -1.636948   -0.555142    1.095557
C      7.517114   -0.277801   -1.462682
C      6.116475    0.142307   -1.540797
C      2.670699    1.687513    0.826744
Cl     8.546463    1.182038   -1.631524
Cl     7.968849   -1.103057    0.024075
F     -2.281395   -1.225236    2.080449
N      5.293899    0.062710   -0.609658
N      1.919468    0.498517    0.605918
O      5.669908    0.687984   -2.777386
O      2.322822    2.834717    0.472041
O     -7.880462   -0.295672   -0.894959
O     -6.717060   -2.126690    0.259898
O      3.838785    1.341065    1.494016
S     -6.532583   -0.784438   -0.385691
H      0.499976    1.303483   -1.489770
H     -1.885514    0.975715   -1.849879
H     -3.677695    0.330722   -2.303840
H     -4.881686    1.137310   -1.298855
H     -4.291991   -0.178058    1.902525
H     -4.070727    1.424882    1.078342
H     -5.947179   -0.536696   -2.718384
H     -5.044064   -1.872375   -1.856163
H     -6.225558    1.439664    0.333519
H     -6.475459    0.316382    1.686561
H      0.213999   -0.733111    2.185262
H      5.517442   -1.480353    0.747916
H      6.197325    0.079038    1.287318
H      2.482695   -1.526243    0.975596
H      3.250284   -0.669560   -0.426115
H     -3.855145   -1.411874   -0.009165
H      4.017517   -0.523117    2.453161
H      7.777565   -0.970943   -2.306568
H      4.644532    0.760557   -2.895716
