43

C      0.283371   -0.988996   -2.094034
C      2.790619    1.194918   -0.532595
C     -2.764314   -0.973169    0.447976
C     -0.247777    2.664936   -1.107393
C      1.348743   -2.920885   -1.016371
C     -3.401523   -1.081234    1.775370
C     -1.183759    3.663706   -1.134497
C      0.276740   -3.323871   -0.018138
C      0.129476   -1.064413    0.969231
C      0.063104    2.280371    2.959835
C      1.390934   -1.398299   -1.192854
C      0.016968    2.372589    0.202599
C      1.397136   -0.786558    0.170616
C     -1.929607   -2.132431    0.121803
C     -0.799077    3.239115    0.965497
C      0.800701    1.519462    0.905576
N     -3.908438   -1.158247    2.788216
N     -1.500163    3.993221    0.127845
N     -0.704670    3.117129    2.283043
N      0.858317    1.436602    2.223564
N      1.679468    0.625571    0.165175
N     -0.531396   -2.172184    0.356255
O     -2.438240   -3.180053   -0.404566
H     -0.478642   -0.346284   -1.590881
H      0.695772   -0.451693   -3.001382
H     -0.272345   -1.853003   -2.511314
H      3.414755    1.832307    0.156879
H      2.471869    1.726439   -1.430252
H      3.484478    0.397312   -0.881412
H     -3.630533   -0.942629   -0.295670
H     -2.281173   -0.004910    0.375445
H      0.213112    2.181675   -1.938515
H      2.341877   -3.312502   -0.718210
H      1.094634   -3.357518   -2.000255
H     -1.570430    4.078431   -2.059923
H      0.783487   -3.736094    0.856561
H     -0.400137   -4.082399   -0.458360
H     -0.461898   -0.159128    1.074367
H      0.442904   -1.383113    2.007855
H      0.124862    2.199186    4.029025
H      2.374522   -1.165374   -1.649510
H      2.227537   -1.285455    0.720199
H     -2.201262    4.737470    0.353204
