46

C      5.166937    0.558775   -1.048809
C     -6.128564   -0.736261    0.950452
C     -5.567004   -0.251053    2.095769
C     -5.424803   -0.622636   -0.222101
C     -4.324148    0.340944    2.088816
C     -4.167472   -0.022773   -0.223812
C      3.297769   -1.617505   -1.719939
C      3.844398   -1.839832   -0.329818
C      1.631960    0.260211   -1.609378
C      2.099123   -0.526359    0.733921
C     -2.257823    2.381700    0.130804
C     -3.594023    0.469199    0.926868
C      3.072440   -0.132256   -1.831414
C      3.518788   -0.499915    0.330707
C      1.095966   -0.301812   -0.334468
C     -2.272179    1.094794    0.909312
C     -1.233245    0.174679    0.329243
N      3.794183    0.463963   -0.694938
O     -2.632479    2.122955   -1.182864
O     -1.516991   -0.981950   -0.077490
O      0.090912    0.560135    0.215388
Br     0.760737    0.000000    0.000000
H      5.250051    0.627812   -2.155119
H      5.658084    1.484591   -0.656827
H      5.798629   -0.285427   -0.712781
H     -7.099954   -1.205449    0.921396
H     -6.120418   -0.338539    3.027853
H     -5.860116   -1.004554   -1.140203
H     -3.900221    0.720124    3.021285
H     -3.665477    0.036456   -1.167906
H      4.085157   -1.961086   -2.432302
H      2.357887   -2.191612   -1.817975
H      3.286768   -2.622574    0.223162
H      4.903704   -2.080488   -0.303508
H      1.609670    1.371349   -1.562519
H      1.047175   -0.072658   -2.490435
H      1.976400    0.179611    1.607666
H      1.890317   -1.539911    1.189552
H     -1.191838    2.736433    0.115969
H     -2.895392    3.140829    0.624149
H      3.478858    0.299709   -2.741981
H      4.169057   -0.308874    1.208584
H      0.563875   -1.260118   -0.611199
H     -2.005992    1.367496    1.973298
H     -1.829967    2.011874   -1.773298
H     -0.760737    0.000000    0.000000
