39

C     -0.668512   -2.650134    0.226375
C      1.025680   -2.220878   -1.586311
C     -1.619777    1.817318    2.271055
C     -0.735189    1.076047    1.507938
C     -2.909057    1.963037    1.819472
C     -3.002374    0.067821   -1.341347
C     -4.371013    0.698623   -1.325449
C     -2.377139    0.623720   -0.137866
C     -1.088021    0.478081    0.314451
C     -3.270616    1.353527    0.604141
C     -0.045816   -0.238161   -0.441996
C      1.061023   -0.746286    0.478414
C      2.419328   -0.347128    0.200135
C      4.109192    1.306909    0.587584
C      0.266339   -1.646689   -0.397366
N      5.026038    0.990538    1.439193
N      4.412482    2.191820   -0.503399
N      2.825467    0.775620    0.746037
O      3.356723   -0.997680   -0.572826
O     -4.473554    1.331594   -0.078619
H     -1.561362   -2.169739    0.678058
H     -0.149557   -3.233756    1.001738
H     -1.011722   -3.385466   -0.556740
H      0.285966   -2.548074   -2.353933
H      1.588896   -3.124785   -1.282037
H      1.685564   -1.471271   -2.050375
H     -1.305057    2.272382    3.197913
H      0.282402    1.007382    1.930157
H     -3.679401    2.529495    2.344873
H     -3.176325   -1.038504   -1.245390
H     -2.509708    0.320058   -2.287638
H     -4.407795    1.517258   -2.096514
H     -5.173139   -0.049551   -1.516640
H      0.275004    0.339527   -1.350100
H      0.831990   -0.880759    1.560922
H      4.785064    0.352371    2.214801
H      4.660478    3.188829   -0.381700
H      4.373772    1.772447   -1.454751
H      4.263726   -1.225542   -0.162259
