59

C      7.880670    0.511485   -1.393282
C     -6.992015    0.749222    1.402934
C      7.091246   -0.529211   -0.625753
C      6.449265    0.176221    0.556483
C      5.525388    1.286459    0.100812
C      4.420637    0.777371   -0.760659
C      3.530244   -0.223109   -0.132589
C      2.818498    0.255540    1.091920
C      1.928496   -0.756019    1.713052
C      0.823687   -1.246482    0.797978
C     -0.069602   -0.110420    0.361878
C     -1.152443   -0.587870   -0.563523
C     -2.012557   -1.604205    0.123184
C     -3.139637   -2.130611   -0.737122
C     -4.024426   -0.982300   -1.140339
C     -4.637982   -0.251880    0.034148
C     -6.149642    1.644406    0.537247
C     -5.492781    0.856283   -0.568458
N     -6.971499    2.662216   -0.049285
O     -6.416505    0.244531   -1.404750
H      8.862242    0.053045   -1.636424
H      8.080043    1.419202   -0.803504
H      7.387142    0.722768   -2.372626
H     -7.713342    0.196107    0.771654
H     -7.517118    1.414252    2.141669
H     -6.343648    0.065081    1.996807
H      6.282168   -0.951829   -1.248953
H      7.759662   -1.316460   -0.222917
H      5.847520   -0.590348    1.094908
H      7.210669    0.544688    1.273445
H      6.166311    2.022533   -0.427189
H      5.177176    1.796827    1.020512
H      4.854824    0.421738   -1.717093
H      3.810867    1.683634   -1.058192
H      2.728895   -0.489194   -0.881164
H      4.128995   -1.116300    0.139684
H      3.591106    0.527006    1.849885
H      2.234330    1.162950    0.826460
H      1.418775   -0.296389    2.586775
H      2.497009   -1.620249    2.114948
H      1.166756   -1.769625   -0.087539
H      0.243875   -1.981285    1.413911
H     -0.517386    0.418925    1.241857
H      0.513800    0.689639   -0.159570
H     -1.732937    0.271294   -0.953662
H     -0.621480   -1.078712   -1.433507
H     -1.401478   -2.492296    0.471082
H     -2.393549   -1.161137    1.062541
H     -2.789161   -2.615933   -1.649420
H     -3.699063   -2.865193   -0.109117
H     -3.443470   -0.319389   -1.812107
H     -4.835034   -1.430819   -1.774600
H     -3.894536    0.136614    0.731179
H     -5.297191   -0.957906    0.559273
H     -5.331912    2.104341    1.135014
H     -4.881809    1.539862   -1.189446
H     -6.442451    3.413694   -0.527938
H     -7.611868    2.232230   -0.727302
H     -6.903774   -0.492676   -0.983213
