87

C      5.481227    1.394127   -1.293185
C     -3.761767   -1.962805    1.328079
C     -3.056728    0.047672    2.208500
C      4.508820   -4.793913   -3.023802
C     -5.958420    6.138133    1.262790
C      2.146253    1.936487   -0.274285
C      1.458884    1.391532    1.893183
C     -2.502585   -2.566211   -1.330214
C      0.800274    2.165914   -0.652344
C      0.101462    1.629618    1.487058
C     -1.982504   -3.830042   -1.425196
C      6.681937   -1.057831   -0.807838
C     -5.988619    0.780024    0.749070
C      6.967518    0.151327    0.032600
C     -5.309153   -0.289300    1.512991
C      3.917004    1.395507    1.407278
C     -2.648397   -0.229311   -1.080696
C     -0.406278   -1.536030   -0.845703
C      4.976842   -2.596202   -1.476762
C     -5.439527    3.223848    0.797351
C      2.957795   -1.368968    0.112439
C      2.487012    1.552889    0.992837
C     -1.771886   -1.392828   -1.046184
C      5.223074   -1.448519   -0.695534
C     -5.035748    1.921114    0.543622
C     -0.223738    2.013033    0.235134
C      4.260327   -0.829034    0.085349
C      4.770388    0.355478    0.804470
C     -3.669041    0.047701   -0.098939
C     -0.640366   -3.924232   -1.225506
C      0.166470   -2.785048   -0.935422
C      3.725266   -3.098023   -1.442297
C      2.716575   -2.490661   -0.653595
C     -4.481272    4.199467    0.705491
C     -3.762744    1.538375    0.206862
C     -3.188558    3.819219    0.372077
C     -2.772227    2.495967    0.115247
N      5.814764    0.989944    0.027984
N     -3.887023   -0.546383    1.143433
O     -0.103509   -5.216439   -1.323068
O     -2.319990    4.929870    0.311822
O      3.468969   -4.240420   -2.215428
O     -4.747817    5.566169    0.930595
O     -1.500406    2.255539   -0.176009
O      1.498567   -3.178785   -0.784652
Cl     0.684067    0.000000    0.000000
H      6.354065    1.344445   -2.011040
H      4.692173    0.761048   -1.744240
H      5.085398    2.457067   -1.328830
H     -4.179647   -2.109648    2.393244
H     -2.724236   -2.320623    1.470076
H     -4.426277   -2.594529    0.741315
H     -3.505138   -0.119899    3.223360
H     -2.961931    1.138551    2.091540
H     -2.079265   -0.482048    2.269740
H      4.172742   -5.745342   -3.472950
H      4.890937   -4.070850   -3.774478
H      5.334432   -5.058033   -2.344152
H     -6.184900    6.963916    0.535663
H     -6.756462    5.397060    1.307581
H     -5.822354    6.669615    2.240494
H      2.754034    2.123645   -1.216230
H      1.425466    1.071248    2.973064
H     -3.597347   -2.530636   -1.502493
H      0.687501    2.470637   -1.747166
H     -0.574311    1.439895    2.383151
H     -2.582726   -4.705529   -1.644229
H      7.353041   -1.881708   -0.542603
H      6.805203   -0.862836   -1.911412
H     -6.822950    1.177484    1.435868
H     -6.437749    0.466574   -0.193963
H      7.825995    0.705302   -0.370365
H      7.239199   -0.164763    1.068478
H     -5.922690   -1.229361    1.320716
H     -5.316924   -0.163406    2.612429
H      4.126191    1.345487    2.510405
H      4.514842    2.395553    1.276836
H     -2.301432    0.750913   -1.492870
H     -3.300903   -0.461009   -2.070693
H      0.219506   -0.627084   -0.583062
H      5.787927   -3.047483   -2.075663
H     -6.454990    3.456733    1.051560
H      2.149959   -0.952345    0.772966
H      5.406481   -0.043275    1.712322
H     -4.726854   -0.120858   -0.636954
H      0.882870   -5.401878   -1.187017
H     -0.684067    0.000000    0.000000
