85

C     -6.572050    0.228486   -0.530238
C     -6.585903    2.445133   -1.599145
C      6.752791   -4.283799   -0.890039
C      7.663386   -3.307787   -0.549672
C      5.437443   -3.918663   -1.047703
C     -2.279284    2.028694   -2.430142
C      1.031353   -2.287799   -2.803222
C     -2.308870    3.326237   -1.983431
C      1.308345   -3.484276   -2.163364
C      7.258642   -1.984370   -0.370256
C      5.047849   -2.597665   -0.866190
C     -1.786642    0.975762   -1.706011
C      0.829481   -1.149069   -2.059507
C     -1.804079    3.573097   -0.713933
C      1.374728   -3.501388   -0.797111
C     -5.110497    2.067520    0.298536
C      5.538142   -0.221445   -0.334899
C     -1.611623   -0.855332    0.801568
C      1.606176    1.129125    0.097483
C     -6.450188    1.700132   -0.277420
C      5.942264   -1.611669   -0.526665
C     -1.281295    1.219168   -0.438715
C      0.884584   -1.110619   -0.670392
C     -1.299631    2.536411    0.044361
C      1.168778   -2.347314   -0.079840
C     -4.856391    1.368108    1.628844
C      5.140830    0.098637    1.103040
C     -2.556149   -0.469467    1.944661
C      2.468496    1.169893    1.367278
C     -3.938385   -0.837409    1.656134
C      3.668271    1.957807    1.247193
C     -3.525702    1.806351    2.085018
C      4.003387   -0.727495    1.548161
C     -0.956738    1.147626    1.815890
C      1.343595   -0.774025    1.555864
C     -0.686542    0.333703    0.590560
C      0.715225   -0.062367    0.373335
N     -4.925351   -0.044640    1.520942
N      4.821244    1.485728    1.133290
N     -0.735898    2.479286    1.373217
N      1.219504   -2.175562    1.329789
N     -2.412833    0.962764    1.955124
N      2.685170   -0.255596    1.504200
O     -4.194450   -2.219136    1.514497
O      3.531674    3.357344    1.259066
O     -3.350087    2.949596    2.603834
O      4.192394   -1.893710    1.984721
H     -5.588227   -0.194279   -0.758868
H     -6.980898   -0.319626    0.355241
H     -7.300361    0.081386   -1.369028
H     -5.822281    2.112155   -2.322494
H     -6.402237    3.530089   -1.367215
H     -7.614637    2.396796   -1.991753
H      7.065750   -5.329292   -1.032790
H      8.692167   -3.611508   -0.429661
H      4.717718   -4.689069   -1.316619
H     -2.667754    1.798619   -3.422243
H      0.984486   -2.301083   -3.886958
H     -2.696362    4.156485   -2.553009
H      1.469295   -4.389568   -2.736457
H      7.971289   -1.218233   -0.103560
H      4.005386   -2.320094   -0.993933
H     -1.791616   -0.032712   -2.098165
H      0.625828   -0.252394   -2.615561
H     -1.812332    4.594282   -0.327226
H      1.593031   -4.451912   -0.327777
H     -5.087375    3.164264    0.408710
H     -4.311885    1.768971   -0.384577
H      4.700326    0.081429   -0.995586
H      6.367526    0.508200   -0.569681
H     -1.094205   -1.765601    1.090528
H     -2.280855   -0.991074   -0.088845
H      1.110397    2.087935    0.027805
H      2.290497    0.924905   -0.764674
H     -7.221798    2.044716    0.423216
H     -5.579050    1.730714    2.402100
H      6.031923   -0.102539    1.783603
H     -2.175017   -0.915614    2.894912
H      1.800870    1.466294    2.210428
H     -0.538343    0.853888    2.748364
H      0.961933   -0.445382    2.539413
H     -0.290487    3.311668    1.798963
H      1.173308   -2.941916    2.065867
H     -5.030503   -2.535650    1.033759
H      4.319330    3.968742    1.459693
