18

C      1.142624    1.728591    0.387134
C     -0.163787    1.359202    0.567640
C      2.022342    0.868548   -0.241045
C      0.308794   -0.750049   -0.522483
C     -2.072018   -1.237534    1.398603
C     -0.569378    0.109118    0.104890
C      1.624369   -0.362227   -0.697019
C     -1.991225   -0.278471    0.307954
N     -2.130750   -2.008657    2.258293
O      2.549769   -1.197858   -1.326278
O     -2.501409   -0.836015   -0.847002
H      1.449594    2.714342    0.755481
H     -0.894395    1.992567    1.052333
H      3.055502    1.170166   -0.379422
H     -0.039904   -1.732058   -0.877912
H     -2.606373    0.628985    0.527972
H      3.117014   -1.872508   -0.821276
H     -2.300769   -0.296141   -1.647863
