35

C      3.922388    1.055415    0.309924
C      3.468876    0.102335    1.390410
C      2.540430   -0.950892    0.862811
C      1.273599   -0.278968    0.252337
C      0.443627   -1.383033   -0.227960
C     -2.802948    0.121892   -1.276028
C     -1.963546    0.195280   -2.502574
C     -1.655006    0.529323    0.827692
C     -1.961275   -0.510995   -0.188635
C     -0.842928   -1.164548   -0.897059
C     -0.700101   -0.490216   -2.218905
C     -2.953129    1.074671    1.405508
O      0.268675   -0.507401   -2.917023
O     -4.051036    0.639483    1.035634
O     -2.880728    2.076334    2.361730
H      3.085146    1.746500    0.055964
H      4.204714    0.495482   -0.590716
H      4.772228    1.627671    0.702107
H      3.003167    0.642217    2.219307
H      4.371903   -0.416137    1.760685
H      2.231489   -1.597615    1.699981
H      2.990134   -1.508208    0.022883
H      1.720943    0.342394   -0.564565
H      0.940079    0.378023    1.038420
H      1.107308   -2.012385   -0.909403
H      0.291810   -2.092407    0.650620
H     -3.045709    1.164608   -0.985640
H     -3.769914   -0.409501   -1.435017
H     -1.730766    1.231532   -2.822627
H     -2.528535   -0.262460   -3.351190
H     -1.084338    1.384632    0.460791
H     -1.165108    0.082779    1.716162
H     -2.643833   -1.306131    0.255862
H     -1.245716   -2.204536   -1.193391
H     -3.611903    2.204861    3.051906
