18

C     -1.265225   -1.565922    0.797210
C     -0.241128   -0.740113    1.272840
C     -1.670067   -1.457009   -0.522838
C     -0.071650    0.258070   -0.888537
C      2.725225    0.621273    0.327187
C      0.336462    0.155948    0.422226
C     -1.094454   -0.556371   -1.390412
C      1.421124    1.043380    0.892737
N      3.735829    0.295326   -0.132723
O     -1.472169   -0.418033   -2.717505
O      1.118278    2.333337    0.397564
H     -1.752185   -2.286561    1.423781
H      0.092821   -0.800358    2.284803
H     -2.465099   -2.097617   -0.893305
H      0.408178    0.976958   -1.528832
H      1.494843    1.066112    1.990201
H     -2.209045    0.249404   -2.915109
H      0.908263    2.922175    1.180713
