87

C      6.645608   -2.765190   -0.892107
C     -3.206141    1.528045   -1.914657
C     -3.745988    2.601535    0.099843
C      4.446866    4.866415    0.738094
C     -7.218853   -4.660605   -0.851445
C      1.933820   -2.899269   -0.507197
C      1.544222   -1.025941   -1.853470
C     -2.133226    2.164750    2.881977
C      0.558713   -2.966733   -0.231820
C      0.164936   -1.122912   -1.555570
C     -1.272414    3.045916    3.459590
C      6.350088    0.804337   -1.126820
C     -5.924239    0.166783    0.010514
C      6.982439   -0.446760   -0.473900
C     -5.223587    1.134968   -0.880069
C      3.895561   -1.845062   -1.597735
C     -2.939755    0.375279    1.526869
C     -0.416754    1.038104    1.655972
C      4.874342    2.295007    0.089135
C     -5.883902   -2.273861   -0.421622
C      3.184885    0.184869    0.932829
C      2.432296   -1.921839   -1.323870
C     -1.750734    1.146481    1.975536
C      5.122171    0.978848   -0.259647
C     -5.158588   -1.121587   -0.214028
C     -0.365519   -2.081051   -0.747324
C      4.301430   -0.089594    0.144588
C      4.737966   -1.405996   -0.377407
C     -3.185783    0.251236    0.048165
C      0.035589    2.905265    3.115570
C      0.506352    1.914937    2.216477
C      3.781358    2.536723    0.855739
C      2.919966    1.506867    1.290181
C     -5.123031   -3.405010   -0.631871
C     -3.782441   -1.081165   -0.212266
C     -3.745653   -3.381814   -0.633614
C     -2.972880   -2.230663   -0.426506
N      6.069400   -1.448406   -0.871145
N     -3.829144    1.321504   -0.579236
O      0.903916    3.836873    3.733103
O     -3.187646   -4.659792   -0.868819
O      3.586059    3.884629    1.176476
O     -5.821966   -4.613855   -0.849792
O     -1.702041   -2.212140   -0.428432
O      1.874528    2.007095    2.049183
Cl     0.692330    0.000000    0.000000
H      6.891121   -3.109202   -1.920418
H      7.625644   -2.711199   -0.357948
H      5.937524   -3.459149   -0.408221
H     -3.016018    0.546081   -2.397205
H     -3.899944    2.076559   -2.581886
H     -2.302141    2.152147   -1.816240
H     -2.678476    2.901113    0.143728
H     -4.200212    3.398881   -0.566311
H     -4.302711    2.655013    1.028932
H      5.454526    4.796268    1.202437
H      4.575274    4.883380   -0.366875
H      4.048168    5.864256    1.048882
H     -7.574195   -5.689068   -0.930168
H     -7.568494   -4.036921   -1.711832
H     -7.561229   -4.169223    0.096261
H      2.435489   -3.762825    0.063281
H      1.696690   -0.129928   -2.545349
H     -3.187393    2.302388    3.181712
H      0.290959   -3.837346    0.467001
H     -0.432067   -0.291861   -2.081900
H     -1.609999    3.819265    4.156968
H      6.097947    0.634042   -2.170642
H      7.043593    1.610209   -0.906592
H     -6.057743    0.423231    1.045380
H     -6.955261   -0.031010   -0.407200
H      7.019720   -0.267240    0.608722
H      7.967108   -0.652162   -0.906732
H     -5.355384    0.726226   -1.932929
H     -5.790776    2.095474   -0.835514
H      4.291046   -1.144834   -2.353974
H      4.326302   -2.802901   -2.009217
H     -3.061194   -0.626139    2.000107
H     -3.912287    0.855290    1.883304
H     -0.034411    0.221508    0.953882
H      5.553710    3.097088   -0.255100
H     -6.975670   -2.287537   -0.419672
H      2.482591   -0.631165    1.309076
H      4.761633   -2.261541    0.361338
H     -2.172588    0.176702   -0.493688
H      1.886920    3.828909    3.555127
H     -0.692330    0.000000    0.000000
