56

C     -4.324001    3.656627   -0.213927
C     -5.050539   -2.911141   -0.797288
C     -5.543270   -2.018898   -1.717656
C     -4.365598   -2.457048    0.309704
C     -5.338708   -0.671818   -1.510081
C      7.026700   -0.250864    1.459447
C      5.663345   -0.166897    1.172280
C      2.290438   -0.005495    1.168899
C      1.464227    0.055298   -1.037925
C     -2.052819   -0.839586    1.764410
C      0.867338   -0.226420    1.548980
C      0.716174   -1.204215   -0.634408
C     -1.256567   -0.639099    0.514206
C      7.515003    0.340333   -0.767399
C      4.231334    0.657332   -1.953680
C     -3.579515    1.073003    1.237442
C     -4.696584    2.303513   -0.700550
C      2.640487    0.136595   -0.073744
C     -3.483238   -0.387739    1.586967
C      7.953022    0.004009    0.486081
C     -4.163734   -1.112265    0.512899
C      5.225816    0.169053   -0.074662
C      3.970304    0.310330   -0.614222
C      6.182092    0.424254   -1.053767
C     -4.659432   -0.193343   -0.415209
Cl     9.678078   -0.097207    0.835935
N      5.534310    0.719207   -2.192229
N      0.124678   -1.055141    0.662819
N     -4.333207    1.133156   -0.000661
O     -5.355732    2.252176   -1.772731
H     -4.107851    3.647083    0.865005
H     -3.394158    3.968132   -0.747189
H     -5.126369    4.404047   -0.438489
H     -5.177728   -3.968407   -0.904145
H     -6.082270   -2.384833   -2.587680
H     -3.972540   -3.149871    1.040564
H     -5.747505   -0.002487   -2.264967
H      7.318709   -0.525147    2.477486
H      4.971165   -0.388269    1.946840
H      2.990327    0.056072    1.967366
H      1.871112   -0.120847   -2.031648
H      0.890602    0.972350   -0.921807
H     -2.104039   -1.938239    1.986776
H     -1.577661   -0.271032    2.585924
H      0.860918   -0.714862    2.543010
H      0.352685    0.746951    1.667558
H      1.450184   -2.020603   -0.598711
H     -0.084236   -1.349410   -1.384896
H     -1.362251    0.384528    0.117380
H     -1.703461   -1.323824   -0.263401
H      8.240973    0.546940   -1.558040
H      3.449895    0.853470   -2.682714
H     -2.623958    1.591490    1.156902
H     -4.217853    1.608878    2.001379
H     -4.005397   -0.572445    2.549641
H      6.010301    0.952626   -3.090422
