77

C     -4.644017   -1.453657   -0.859361
C      4.061632   -1.279537    1.985113
C     -5.080391    2.457218   -0.082568
C     -2.418035    3.798129   -0.791264
C     -1.002159    3.414461    1.139315
C     -0.704778   -4.650531   -1.532825
C     -2.103482   -1.876491    0.187649
C     -3.197693   -1.690402    1.180129
C     -1.339026   -3.184147    0.451850
C      4.155929   -0.337773   -0.240277
C      1.567960   -2.492727    0.704423
C      0.297172    1.383006   -0.043013
C      8.325920    2.317916   -0.936568
C      6.444572   -1.090922    0.373307
C     -4.485394   -1.141993    0.592887
C      3.444170   -0.849939    0.709680
C     -4.082239    1.317499    0.138678
C      5.624935   -0.130487   -0.164108
C      1.979097   -1.025407    0.554639
C     -0.946543    1.861181   -0.788898
C      0.982143   -3.063781   -0.541891
C      7.350073    1.254347   -0.577400
C      1.089928    0.600109   -1.022712
C     -4.730893    0.281401    0.963889
C     -2.871078    1.928976    0.799530
C     -1.847279    2.690556    0.080398
C     -0.357684   -3.465281   -0.616802
N      6.194357    0.964147   -0.589745
O      8.457156    3.171977    0.152510
O     -0.459712    2.646103   -1.855372
O      1.270712    1.127917   -2.171513
O     -6.129196    0.470225    1.081115
O     -2.813928    1.730395    2.020806
O      1.607900   -0.625666   -0.727962
O      0.079844   -2.319491   -1.301208
S      8.065723   -0.281976    0.208572
H     -5.741842   -1.379113   -1.093255
H     -4.405310   -2.539283   -0.983566
H     -4.033540   -0.882782   -1.547729
H      3.307361   -1.175231    2.827098
H      4.213762   -2.382703    1.927065
H      4.959607   -0.728858    2.267339
H     -4.695057    3.422649    0.337608
H     -5.357315    2.554884   -1.155346
H     -6.034993    2.281064    0.455802
H     -2.725917    4.684778   -0.197934
H     -3.161646    3.454160   -1.506282
H     -1.545371    4.168409   -1.406980
H     -1.767121    3.811992    1.869620
H     -0.378485    2.722309    1.706571
H     -0.491540    4.288412    0.735517
H     -0.163700   -4.595252   -2.482884
H     -0.294281   -5.546276   -0.986237
H     -1.797928   -4.771447   -1.627528
H     -1.397264   -1.037062    0.281740
H     -2.440913   -1.955257   -0.861864
H     -3.354745   -2.686584    1.685600
H     -2.866898   -1.017403    2.016155
H     -2.163296   -3.960908    0.441643
H     -0.985267   -3.154024    1.477844
H      3.639281   -0.043909   -1.147888
H      0.956194   -2.629242    1.618678
H      2.526341   -3.042532    0.944711
H      0.006273    0.821270    0.842055
H      0.935634    2.279482    0.210592
H      7.916886    2.839744   -1.826018
H      9.290012    1.875200   -1.243630
H      6.281112   -2.080482    0.798462
H     -5.303897   -1.736550    1.109108
H     -3.746273    1.009885   -0.859871
H      1.520163   -0.418607    1.377088
H     -1.462902    1.006376   -1.235529
H      1.729615   -3.578681   -1.217908
H     -4.357534    0.401154    2.024529
H      7.841360    3.917026    0.017677
H      0.258093    3.209668   -1.453806
H     -6.494356    0.138371    0.216529
