59

C     -4.147063   -2.041248   -1.180537
C     -3.302593   -2.498622    1.126347
C      8.825913   -1.142347   -0.276543
C      1.408358    1.012703   -0.574896
C      1.790189    0.166994    1.597380
C      0.190688    1.504463   -0.150262
C      0.551163    0.671938    2.014688
C      4.315463    0.389765   -1.050033
C      4.021225   -1.368140    0.503228
C      5.541552   -0.107049   -1.428142
C      5.246832   -1.870977    0.130127
C     -6.375472    3.365195   -1.391757
C     -5.545467    2.338286   -2.019166
C     -2.462277   -0.496367   -0.071699
C     -3.018813   -1.863233   -0.234394
C      2.224588    0.334651    0.301913
C      3.535826   -0.215309   -0.092028
C     -0.266576    1.350270    1.138735
C      6.016379   -1.253200   -0.831360
C     -3.330733    0.582983    0.440359
C     -1.568745    1.920177    1.516634
C     -4.543354    0.898755   -0.351400
C     -1.961047    1.669813    2.954266
F     -3.204417    2.286721    3.117130
F     -1.061179    2.329268    3.759412
F     -2.012180    0.359665    3.318203
N     -7.016926    4.176643   -0.914386
N     -4.477685    1.889717   -1.175499
N     -2.627521    1.801627    0.599282
O     -5.743091    0.230662   -0.292112
O      7.586291   -3.359085   -1.094951
O      7.852900   -1.483072   -2.718695
S      7.578342   -1.876935   -1.317963
H     -5.113557   -2.325844   -0.717616
H     -3.918743   -2.954281   -1.834465
H     -4.177827   -1.222412   -1.899861
H     -3.758203   -3.486572    0.923554
H     -4.018236   -1.900780    1.719759
H     -2.340809   -2.655901    1.613810
H      9.122106   -0.158605   -0.702564
H      9.721752   -1.781917   -0.271728
H      8.434153   -0.941374    0.743760
H      1.752629    1.143868   -1.595928
H      2.424783   -0.363167    2.289241
H     -0.437677    2.041441   -0.875612
H      0.221935    0.542002    3.018216
H      3.940037    1.286853   -1.515181
H      3.414946   -1.849500    1.256580
H      6.126790    0.413721   -2.199361
H      5.637075   -2.764281    0.582788
H     -6.146598    1.465764   -2.374266
H     -5.097523    2.795751   -2.929216
H     -1.926435   -0.224354   -1.017821
H     -1.621099   -0.609737    0.682939
H     -2.151621   -2.490007   -0.620835
H     -3.718476    0.195235    1.438865
H     -1.361898    3.057679    1.539317
H     -2.439049    2.324425   -0.265255
H     -6.589023    0.757280   -0.493683
