59

C      0.602992   -1.609450   -1.813072
C     -2.776329   -3.043138    0.721020
C     -3.492758   -1.915695    1.396965
C     -1.824268    3.144487    0.249267
C     -2.196234    2.475872   -1.027978
C     -1.266163   -2.829906    0.795448
C     -3.060103   -0.551394    1.005529
C      3.929134    0.569126    1.352418
C      4.565914    1.771500    1.430447
C     -1.547190    2.007168    1.198752
C     -1.461050    1.151051   -0.972993
C      3.708183    0.793087   -0.967740
C      2.810729   -1.288656    0.080091
C      3.476208    0.027253    0.174165
C      4.784573    2.512155    0.282341
C      4.344087    2.009618   -0.950098
C     -1.057445   -1.510297    0.017712
C     -1.560478   -0.396980    0.871447
C      1.390466   -1.270398    0.463935
Cl     5.602485    4.042497    0.380628
Cl     4.611640    2.919412   -2.406409
N      0.292655   -1.449023   -0.403785
N     -1.196732    0.898986    0.391269
O      1.115663   -1.078772    1.685413
C     -1.078841    0.144340    0.043785
O      1.648903    0.665629   -0.497034
O      0.646102   -1.605874   -1.121432
O      0.956887   -1.094216    1.222895
S      0.558630   -0.516432   -0.106329
H      1.142530   -0.717635   -2.206238
H     -0.271516   -1.872494   -2.420495
H      1.327368   -2.453596   -1.891688
H     -3.060624   -3.990022    1.212344
H     -3.040597   -3.145598   -0.344565
H     -3.532704   -2.071213    2.500331
H     -4.579823   -2.003939    1.087737
H     -0.907610    3.760673    0.131308
H     -2.657122    3.733998    0.695921
H     -1.924755    3.060162   -1.925849
H     -3.305352    2.283402   -0.975493
H     -0.811985   -3.673814    0.256422
H     -0.946546   -2.731058    1.841704
H     -3.375857    0.117982    1.854031
H     -3.572374   -0.269196    0.064498
H      3.762718    0.005260    2.243193
H      4.928292    2.208366    2.358203
H     -2.389949    1.844188    1.906913
H     -0.711114    2.354015    1.863377
H     -0.536898    1.226576   -1.611988
H     -2.115553    0.408440   -1.468081
H      3.341615    0.344758   -1.901441
H      3.335049   -1.935000    0.844474
H      2.977927   -1.725339   -0.933767
H     -1.735901   -1.622245   -0.862157
H     -1.135197   -0.515174    1.888426
H     -1.386051    0.751095   -0.815905
H     -1.060099    0.836990    0.925112
H     -1.804535   -0.634297    0.269099
H      1.519004    1.452765    0.079808
