56

C     -7.320587    1.234776   -1.697201
C     -4.548923   -0.512707    2.705198
C     -5.561259    0.356585    2.363714
C     -3.728446   -1.011471    1.711300
C     -5.756340    0.726370    1.048319
C      6.748982    1.767638    2.334484
C      5.557910    1.287597    1.804993
C      2.477712    0.490559    1.043481
C      2.475299   -0.853034   -0.999484
C     -1.731794   -1.198569   -0.582068
C      1.031302    0.779766    0.772351
C      1.000102   -0.848898   -0.977519
C     -1.016150   -0.053353    0.002682
C      7.956292    0.047041    1.270945
C      5.263960   -1.543493   -0.337500
C     -3.564652    0.061376   -1.779552
C     -5.968286    0.898312   -2.144116
C      3.132529   -0.261194    0.214495
C     -3.183617   -1.030259   -0.841501
C      7.945955    1.148752    2.068472
C     -3.898814   -0.662032    0.398912
C      5.545681    0.179897    1.002245
C      4.557216   -0.516587    0.321345
C      6.775274   -0.432924    0.743348
C     -4.915871    0.210965    0.055957
Cl     9.445409    1.760509    2.741289
N      6.556575   -1.459259   -0.063950
N      0.386341   -0.361255    0.207993
N     -4.907812    0.431900   -1.342929
O     -5.741163    1.048180   -3.397283
H     -7.742613    0.465165   -0.984806
H     -7.430679    2.216049   -1.218336
H     -8.028590    1.226158   -2.555895
H     -4.348430   -0.836675    3.710179
H     -6.194079    0.741722    3.128430
H     -2.914683   -1.707430    1.968757
H     -6.560007    1.410500    0.842569
H      6.708304    2.643481    2.962983
H      4.655036    1.831184    2.020328
H      2.917735    0.877212    1.944043
H      2.890574   -0.317250   -1.875983
H      2.879627   -1.906274   -1.074536
H     -1.262241   -1.484306   -1.562032
H     -1.594503   -2.084008    0.071218
H      0.537462    1.004594    1.740098
H      0.911176    1.628818    0.075323
H      0.653318   -1.916775   -1.111353
H      0.606142   -0.295309   -1.850519
H     -1.408424    0.217159    1.027159
H     -1.059634    0.887733   -0.571235
H      8.907870   -0.445738    1.058138
H      4.782189   -2.279340   -0.968754
H     -3.692238   -0.365035   -2.797177
H     -2.880707    0.894601   -1.856487
H     -3.625313   -1.981438   -1.202402
H      7.279884   -2.109986   -0.435614
