77

C     -5.196842   -1.967388   -0.109977
C      4.278137   -0.775536    0.813738
C     -4.788157    1.686603    0.267512
C     -2.328508    4.333564   -0.867608
C     -2.219924    3.118753    1.247625
C     -0.916121   -3.913073    2.460220
C     -2.347218   -3.168476   -0.013187
C     -2.791945   -1.720611    0.189476
C     -0.816553   -3.210312   -0.018091
C      3.966128   -0.438247   -1.546810
C      1.819006   -2.558640    0.134092
C      0.112142    1.547336   -0.681555
C      7.882876    2.073936    0.052862
C      6.192167   -0.511288   -2.626346
C     -3.921968   -1.467072   -0.764243
C      3.428274   -0.768362   -0.399050
C     -3.556510    0.979641   -0.255967
C      5.396512   -0.068614   -1.663678
C      1.973601   -1.123113   -0.318157
C     -0.382028    2.942760   -0.355750
C      1.098926   -2.704264    1.431787
C      7.029508    1.173219   -0.747842
C      1.013831    1.058849    0.402502
C     -4.013003   -0.048581   -1.244748
C     -2.600247    1.930035   -0.902734
C     -1.891203    3.014725   -0.221111
C     -0.273723   -3.098839    1.368503
N      5.958211    0.770836   -0.793399
O      7.212911    3.275912    0.287951
O      0.098515    3.843063   -1.323813
O      1.477697    1.965910    1.193863
O     -5.312180    0.198237   -1.706154
O     -2.374304    1.808494   -2.116074
O      1.360593   -0.235086    0.595109
O      0.067277   -1.765352    1.759212
S      7.777751    0.290590   -2.280075
H     -4.894048   -2.864087    0.506154
H     -5.921747   -2.369585   -0.846251
H     -5.632168   -1.246349    0.583253
H      5.209985   -1.366111    0.689198
H      4.548675    0.273866    1.043748
H      3.738164   -1.193918    1.691828
H     -4.749468    1.803212    1.376766
H     -5.727725    1.114394    0.063480
H     -4.940299    2.663166   -0.248554
H     -1.751613    4.380365   -1.838838
H     -3.388521    4.250625   -1.138343
H     -2.101267    5.194453   -0.220673
H     -3.142760    3.702806    1.459682
H     -1.384702    3.736434    1.695503
H     -2.171192    2.153863    1.764173
H     -1.535058   -4.747659    2.026944
H     -1.616020   -3.304309    3.069708
H     -0.170379   -4.400517    3.130467
H     -2.640095   -3.552104   -1.031842
H     -2.798655   -3.848102    0.710324
H     -1.961262   -1.070400   -0.078194
H     -3.116602   -1.630212    1.241150
H     -0.424562   -4.143584   -0.461959
H     -0.513138   -2.335023   -0.631202
H      3.369924   -0.427514   -2.451704
H      1.340814   -3.136313   -0.708947
H      2.837173   -2.992478    0.250329
H      0.689783    1.548899   -1.618093
H     -0.695441    0.815116   -0.781030
H      8.129564    1.656753    1.066355
H      8.833487    2.232009   -0.482207
H      6.032818   -1.227799   -3.511134
H     -3.771325   -2.126969   -1.655214
H     -3.013919    0.543808    0.620609
H      1.534724   -0.967968   -1.301468
H      0.102738    3.269091    0.612689
H      1.685699   -2.971061    2.361593
H     -3.367839    0.028341   -2.169166
H      6.484600    3.097114    0.942920
H      0.466772    3.373433   -2.108767
H     -5.988741   -0.385299   -1.302704
