54

C      3.370211   -3.766130   -2.859548
C      3.242222    1.806623   -2.466600
C     -0.264208    6.861669    1.432073
C     -1.246740   -4.738630    1.273096
C     -1.888202   -4.006919    2.415223
C     -0.100005   -3.903408    0.703217
C     -1.542534   -2.550822    2.323892
C     -1.373671    2.126611    1.622616
C     -0.538198    2.456185   -0.559923
C     -1.656345    3.463242    1.735128
C     -0.827711    3.783416   -0.417831
C      1.257586   -2.464597   -1.391834
C      1.247659    0.234187   -1.229620
C     -0.804871    1.565205    0.479653
C     -1.382897    4.338150    0.696942
C     -0.751032   -2.749351   -0.065290
C      0.243554   -1.861974   -0.687191
C      0.235351   -0.473002   -0.604839
C     -1.656091   -2.065343    0.870386
C      2.271865   -1.759025   -2.023282
C      2.277441   -0.391005   -1.948109
C     -0.764509    0.143655    0.272256
N     -1.545496   -0.645857    0.924823
O     -2.484228   -0.059032    1.774742
O     -2.196604    6.583981   -0.473972
O     -2.865250    6.202819    1.823678
O      3.301010   -2.360223   -2.738742
O      3.250316    0.374126   -2.549125
S     -1.731636    6.054964    0.843303
H      3.167878   -4.267452   -1.868247
H      2.722680   -4.165855   -3.669282
H      4.422704   -4.107381   -3.093833
H      3.347856    2.141803   -1.416947
H      4.062011    2.245269   -3.047703
H      2.262758    2.205547   -2.810301
H     -0.313836    7.966226    1.305677
H      0.592363    6.412605    0.855700
H     -0.138452    6.597317    2.505453
H     -2.023986   -4.918616    0.503231
H     -0.847467   -5.741915    1.579296
H     -1.490493   -4.412129    3.374301
H     -3.011556   -4.096549    2.381603
H      0.471454   -3.517321    1.590095
H      0.528411   -4.538658    0.062493
H     -2.334830   -1.937529    2.854730
H     -0.592189   -2.276456    2.785116
H     -1.581474    1.526691    2.528020
H     -0.189558    2.133595   -1.553105
H     -2.101905    3.914530    2.633192
H     -0.589432    4.449190   -1.281046
H      1.311495   -3.560022   -1.495227
H      1.359358    1.284606   -1.124589
H     -1.369216   -3.261761   -0.859105
H     -2.741560   -2.275253    0.616402
