57

C     -7.493154    2.700454    1.535563
C      7.641086    2.576130    0.561365
C      7.807648    1.265159    0.218732
C      6.369210    3.051603    0.713117
C      6.748961    0.425460    0.026847
C      5.283623    2.189646    0.516413
C     -0.461677   -3.545682   -1.190331
C     -4.035293    1.507752   -1.561328
C     -3.726095    1.156042    0.760649
C     -0.719090   -4.822849   -0.377656
C     -5.302051    2.028413   -1.356767
C     -4.990108    1.674215    0.964578
C     -0.427040   -3.066148    1.134065
C      1.451094    2.032573   -0.715231
C     -0.909448    1.564851   -1.100063
C      0.421761    1.084338   -0.756811
C      5.422822    0.868365    0.172469
C     -3.274525    1.086258   -0.523883
C      0.029259   -2.553693   -0.217014
C     -0.060034   -4.548914    0.978444
C     -5.802239    2.119131   -0.064183
C      0.779702   -0.214016   -0.541786
C      3.024263    0.342339   -0.270281
C     -1.654220   -0.775841   -0.543019
N      2.683525    1.608861   -0.476027
N      4.360114   -0.031926    0.024325
N      2.042548   -0.600004   -0.304629
N     -1.934290    0.595575   -0.735700
N     -0.297052   -1.186126   -0.438858
O      1.298355   -4.711746    0.786661
O     -2.549397   -1.657453   -0.458233
O     -7.075595    2.641997    0.184018
H     -6.800728    3.445898    2.015623
H     -8.525724    3.102578    1.530951
H     -7.397613    1.716371    2.043020
H      8.476142    3.248012    0.720650
H      8.827020    0.911280    0.102107
H      6.176184    4.088075    0.986358
H      6.858127   -0.625874   -0.249942
H      4.310999    2.631971    0.665342
H      0.318987   -3.735818   -1.967796
H     -1.381338   -3.333921   -1.717224
H     -3.721726    1.470351   -2.607435
H     -3.149581    0.827060    1.619701
H     -1.808422   -4.949812   -0.150706
H     -0.301174   -5.694777   -0.884093
H     -5.935964    2.371486   -2.147058
H     -5.341855    1.723046    2.007212
H      0.214460   -2.650801    1.925940
H     -1.495298   -2.998428    1.312310
H      1.260684    3.084014   -0.871550
H     -0.935741    1.673577   -2.221607
H     -1.111344    2.546318   -0.617535
H      1.149011   -2.640318   -0.174875
H     -0.476156   -5.174341    1.777368
H      4.573646   -1.051353    0.138934
H      1.564738   -4.789362   -0.181140
