48

C     -2.961538   -4.617196    1.114328
C     -2.956612    4.629290   -1.133627
C     -1.854536    5.343661   -0.712125
C     -2.919275    3.259852   -0.972600
C     -0.761352    4.690069   -0.150590
C      2.436244   -1.344382    0.925063
C      3.740490   -1.567040    0.567173
C      2.388072    0.579485   -0.426563
C     -2.354942    0.061508   -0.369974
C     -0.832671   -3.674935    0.285051
C      5.881704    0.394166   -1.533620
C      1.730739   -0.266797    0.436958
C     -1.829285    2.615272   -0.413454
C     -1.525921    1.280506   -0.136148
C     -0.728655    3.326508    0.007725
C     -1.961773   -0.935898    0.723274
C      4.392179   -0.732230   -0.285464
C      3.720860    0.348595   -0.789660
C     -0.153552   -2.408653   -0.066559
C     -0.277663    1.199578    0.434324
C      0.331475   -0.095050    0.851773
C     -2.760988   -2.155584    0.713133
N      0.171651    2.457505    0.504974
N     -2.199909   -3.456058    0.705443
N     -0.545000   -1.185125    0.487088
O      0.791302   -2.449980   -0.881029
O     -4.011203   -2.049134    0.711091
O      5.694256   -0.770789   -0.773404
O      4.609691    1.009851   -1.612540
H     -2.295988   -5.422202    1.533463
H     -3.534744   -5.018999    0.236519
H     -3.710096   -4.325781    1.889013
H     -3.810180    5.142523   -1.572392
H     -1.874098    6.427507   -0.835070
H     -3.773516    2.683595   -1.296939
H      0.088994    5.287465    0.169768
H      1.933832   -2.029242    1.611778
H      4.246694   -2.428814    0.980506
H      1.893239    1.427008   -0.844787
H     -2.014264   -0.366537   -1.328315
H     -3.429953    0.281863   -0.343765
H     -0.305706   -4.177178    1.126879
H     -0.843480   -4.384313   -0.558647
H      6.630773    1.022636   -1.011291
H      6.215673    0.108440   -2.550957
H     -2.045791   -0.397437    1.684196
H      0.278243   -0.108448    2.005319
H      1.096581    2.790919    0.894680
