55

C     -4.879437   -0.819285    3.569741
C     -6.569597    1.035175   -0.800140
C     -7.163238    0.776912    0.418959
C     -5.226815    0.761312   -0.962089
C     -6.402991    0.252494    1.443509
C      7.553240    0.583886    1.470099
C      6.930643   -0.584864    1.101098
C     -0.917679   -0.288477    0.746383
C     -1.262955   -0.353180   -1.706825
C     -2.095849    0.679185    0.632786
C     -2.569431   -0.914237   -1.191811
C      6.087504    1.775735    0.027401
C      0.804474    0.646288   -0.712836
C      2.381995   -0.512591   -2.104772
C      4.408135   -1.756770   -1.306926
C     -0.247753   -0.438660   -0.602211
C      7.131240    1.776143    0.931257
C      3.543814   -0.524745   -1.160837
C     -4.451135    0.237458    0.051234
C     -5.060135   -0.013462    1.258986
C      5.877321   -0.578160    0.188046
C      5.447953    0.624994   -0.358750
Cl     7.933926    3.266016    1.410464
N      1.520651    0.625365   -1.938458
N     -3.077725   -0.015206   -0.188486
O     -4.328460   -0.537590    2.306227
O      5.263727   -1.768689   -0.169921
O      4.390149    0.576973   -1.267193
H     -5.566289   -0.031449    3.910735
H     -5.375764   -1.824190    3.578999
H     -4.022354   -0.832388    4.294603
H     -7.169122    1.444049   -1.595844
H     -8.217802    1.000069    0.518915
H     -4.779171    0.969550   -1.922065
H     -6.906219    0.063904    2.377580
H      8.382493    0.551036    2.192296
H      7.259546   -1.541814    1.525333
H     -0.222734    0.145317    1.485549
H     -1.284804   -1.251364    1.125675
H     -0.955735   -0.922620   -2.593061
H     -1.471631    0.701731   -1.998727
H     -2.522063    0.782430    1.639454
H     -1.758688    1.632359    0.172182
H     -3.303489   -1.066627   -2.019471
H     -2.399549   -1.897303   -0.679358
H      5.742966    2.705374   -0.403660
H      0.256966    1.614502   -0.651748
H      1.434367    0.590092    0.179647
H      2.780453   -0.483129   -3.140628
H      1.788714   -1.428706   -2.006406
H      5.088316   -1.634412   -2.182764
H      3.852959   -2.693848   -1.337938
H      0.215739   -1.445785   -0.656105
H      3.131943   -0.553285   -0.126474
H      0.999385    0.894484   -2.771658
