55

C     -4.612335    0.479753   -0.259669
C      0.318216    3.972210    1.227968
C     -1.512182    3.505060   -0.282537
C      3.839519    2.032427    0.619344
C      3.663291    0.589907   -1.363999
C      3.238758   -2.318320    0.208825
C     -3.123444    0.448678   -0.668223
C     -2.306863    0.523224    0.566178
C     -1.542109   -2.582893    0.977117
C     -0.931870   -2.366395   -1.289020
C     -2.189875   -3.770048    0.652473
C     -1.563773   -3.530136   -1.619217
C     -0.801484    2.952714    0.915921
C      3.432841    0.608088    0.150887
C      1.843459   -1.982310   -0.128579
C     -0.901863   -1.862185    0.009888
C     -2.203665   -4.246021   -0.636671
C     -0.861367    0.520091    0.463735
C      1.262017   -0.687153    0.133115
C     -0.162164   -0.626934    0.218432
C     -0.077963    1.663684    0.630413
C      1.952306    0.475589    0.304047
F     -2.853829   -5.417336   -0.894716
N      1.247642    1.611671    0.549503
O      1.025178   -3.057385    0.325625
H     -4.727589    0.187037    0.809026
H     -4.959781    1.555310   -0.289632
H     -5.216796   -0.105780   -0.959218
H      0.820599    4.285431    0.296706
H      1.056167    3.551987    1.922558
H     -0.149627    4.899580    1.633358
H     -1.224006    4.572062   -0.519789
H     -2.610332    3.544816   -0.107325
H     -1.262724    2.952651   -1.222320
H      3.564783    2.772160   -0.129079
H      4.939435    1.981544    0.776772
H      3.368832    2.159998    1.598711
H      4.584973    0.041063   -1.540171
H      2.836536    0.093023   -1.901573
H      3.691695    1.633628   -1.745750
H      3.542518   -2.133384    1.268769
H      3.330983   -3.491835    0.098347
H      4.043446   -2.001254   -0.452469
H     -3.007875    1.315756   -1.351667
H     -2.982993   -0.436858   -1.306907
H     -2.633522    1.468849    1.098939
H     -2.693006   -0.267411    1.292741
H     -1.536706   -2.227237    1.976428
H     -0.441205   -1.817796   -2.074694
H     -2.697118   -4.341406    1.416543
H     -1.575735   -3.910561   -2.633346
H     -1.389596    2.865320    1.826373
H      4.006040   -0.047846    0.734479
H      1.772069   -2.132638   -1.268502
H      1.372099   -3.902191   -0.058147
