44

C      4.771006   -0.751216    0.174462
C      4.759562    0.614145   -1.870275
C      4.307369    1.711254    0.250028
C     -4.762172   -0.091851    0.771510
C     -3.946557   -0.843747   -1.427934
C     -4.886905    1.446959   -1.112868
C      0.467461   -0.543830    0.076636
C     -0.483127    0.432589    0.760441
C      0.148217   -1.889664    0.617498
C     -0.307903    0.386152    2.241212
C      2.688013    0.081714   -0.694783
C     -2.709242    0.846677   -0.200511
C      4.095161    0.435189   -0.527941
C     -4.050974    0.321627   -0.495670
O     -1.015977   -2.343326    0.468833
O      1.067127   -2.684318    1.283755
O      0.787237    0.717174    2.737399
O     -1.328060   -0.015209    3.090204
O      2.211600    0.034508   -1.856597
O     -2.326314    2.009418   -0.487681
O      1.816520   -0.211876    0.341404
O     -1.797152    0.016188    0.435530
H      4.562514   -0.660619    1.257966
H      4.268547   -1.666974   -0.199231
H      5.854870   -0.771664   -0.045728
H      4.908736    1.702844   -2.109861
H      5.780056    0.161242   -1.873801
H      4.143889    0.191923   -2.695165
H      3.395841    2.075085    0.752556
H      5.056335    1.489243    1.038326
H      4.752700    2.522353   -0.369178
H     -5.271059    0.768790    1.228949
H     -3.970816   -0.447552    1.486690
H     -5.459194   -0.953464    0.582188
H     -3.133905   -0.676313   -2.186017
H     -3.724100   -1.783689   -0.917721
H     -4.922652   -0.966809   -1.970952
H     -4.516364    1.715182   -2.121408
H     -4.835926    2.298313   -0.402021
H     -5.945396    1.121290   -1.137506
H      0.227120   -0.535744   -0.995523
H     -0.306362    1.476095    0.442096
H      0.790211   -3.582866    1.600165
H     -1.159938   -0.274144    4.060520
