43

C      2.244745   -0.350986    2.682028
C     -3.298610    2.583078   -0.298121
C     -3.046988    3.165993    1.071355
C     -1.338532   -3.387430   -0.661043
C     -0.106832   -3.031021   -0.165313
C     -1.896770    2.154550   -0.729191
C      4.265054   -1.108353   -0.679741
C      3.912716    0.077221   -1.588719
C     -1.994650   -1.108471   -0.361613
C      0.787806    0.824323    1.064103
C     -2.292885   -2.407940   -0.758578
C     -0.749154   -0.787272    0.130182
C     -0.403767    0.563401    0.578649
C      0.229722   -1.747778    0.240498
C     -1.945523    2.320614    1.593503
C      3.059517    0.371390    0.451482
C      1.851902   -0.172450    1.201114
N     -1.365324    1.605543    0.495906
N     -3.605155   -2.686750   -1.263764
O     -1.543136    2.209160    2.788560
O     -4.534383   -1.704796   -1.352275
O     -3.898188   -3.835316   -1.624550
O      4.130823   -0.478866    0.575428
O      2.797269    0.576467   -0.878603
O      1.452256   -1.413429    0.727676
H      2.535315   -1.409372    2.867106
H      3.095541    0.301431    2.907834
H      1.376505   -0.090807    3.321493
H     -3.949488    1.709076   -0.266294
H     -3.685910    3.378948   -0.990359
H     -2.632259    4.195845    0.952520
H     -3.944023    3.148820    1.719982
H     -1.560929   -4.395388   -0.965903
H      0.680100   -3.777608   -0.070712
H     -1.310753    3.083811   -0.968806
H     -1.889421    1.457959   -1.575193
H      5.288210   -1.469097   -0.856950
H      3.482346   -1.863412   -0.744960
H      3.653420   -0.235635   -2.597973
H      4.691458    0.855150   -1.521204
H     -2.769249   -0.358600   -0.437495
H      0.945753    1.864231    1.370813
H      3.281473    1.373763    0.908995
