52

C     -5.552927    0.106482   -2.092259
C     -3.868219    1.507160    2.335401
C     -3.020731    0.756768    1.514963
C     -5.207708    1.540574    2.085918
C      5.369731    1.183317   -0.788934
C      5.747107    0.105924    1.269249
C      6.721471    1.397787   -0.905849
C      7.101208    0.319961    1.153435
C      3.369919    0.345373    0.427974
C     -0.631597   -1.698753   -1.398346
C     -0.397555    0.446496   -0.092101
C      2.862083   -0.774117   -0.440769
C      0.851613   -1.813956   -1.311953
C      0.740801   -0.341261    0.618307
C      4.836840    0.523029    0.309448
C     -1.287148   -0.479800   -0.765634
C      7.635963    0.980056    0.049207
C     -3.483019    0.030038    0.437694
C     -5.703431    0.823473    1.021849
C     -2.627994   -0.866583   -0.327889
C     -4.849890    0.091274    0.224172
F      8.966105    1.210095   -0.097703
N      1.486431   -0.987134   -0.394944
O     -7.080871    0.895164    0.820476
O     -2.510266   -2.128157    0.331309
O     -5.443299   -0.612349   -0.844673
H     -5.315769    1.184845   -1.944673
H     -6.571146   -0.026784   -2.488204
H     -4.860222   -0.361046   -2.794039
H     -3.464981    2.069955    3.173234
H     -2.000642    0.758614    1.830816
H     -5.907105    2.128272    2.730035
H      4.672780    1.526716   -1.559050
H      5.343470   -0.402492    2.160200
H      7.120348    1.903424   -1.778253
H      7.804857   -0.005971    1.901913
H      2.809678    1.270379    0.202088
H      3.140121    0.054052    1.489879
H     -1.041808   -2.609585   -0.826427
H     -1.039061   -1.877162   -2.435034
H     -0.683472    1.287425    0.451417
H      0.265234    0.949639   -0.953897
H      3.217214   -0.579474   -1.476927
H      3.373483   -1.735287   -0.138745
H      1.084863   -2.894247   -1.023331
H      1.297065   -1.726816   -2.370755
H      1.220172    0.348612    1.282659
H      0.214366   -1.129541    1.182014
H     -1.529802    0.139963   -1.797979
H     -3.189100   -1.197804   -1.286112
H     -7.448646    0.391254    0.027102
H     -2.536514   -2.027803    1.293142
