53

C     -0.047764   -2.556451   -0.685456
C     -1.377918   -1.192546   -3.198778
C     -2.820317   -1.285071   -2.848718
C     -3.906545    0.790653    2.430922
C     -2.688737    1.649760    2.419031
C      4.145790    1.222029    3.134722
C      3.033870    1.113222    2.364280
C     -0.755393   -0.049615   -2.496775
C     -3.242687   -0.405672   -1.723535
C      5.359600    0.992904    2.472908
C      4.376423    0.262981   -0.940852
C     -3.930739    0.128710    1.087899
C     -1.805358    1.042479    1.331144
C      5.592884    0.056473   -1.499809
C      1.684843    0.722447    0.326711
C      3.019097    0.808579    1.044952
C      4.217899    0.572856    0.350139
C     -0.882252   -0.194152   -0.977540
C     -2.265668   -0.461299   -0.542666
C      5.355425    0.684568    1.139829
C      1.286617   -0.666579    0.102906
N      0.119072   -1.128248   -0.536921
N     -2.682020    0.396012    0.476332
O      2.106550   -1.552325    0.542363
S      6.702991    0.329796   -0.022084
H     -1.071352   -2.906825   -0.783318
H      0.672440   -2.956455   -1.430903
H      0.316454   -3.001195    0.289771
H     -1.307614   -0.963088   -4.311554
H     -0.895975   -2.176792   -3.014581
H     -3.435211   -0.982956   -3.748328
H     -3.086067   -2.353146   -2.698978
H     -3.810213   -0.028619    3.201623
H     -4.835699    1.383410    2.613817
H     -2.154271    1.622213    3.403980
H     -3.008920    2.679026    2.148659
H      4.163170    1.463169    4.177978
H      2.072284    1.288511    2.864631
H     -1.249758    0.882821   -2.814000
H      0.322653    0.004310   -2.739871
H     -3.411439    0.639431   -2.033302
H     -4.212461   -0.830987   -1.326586
H      6.304754    1.052333    2.987091
H      3.492796    0.148549   -1.667408
H     -4.737079    0.597877    0.454579
H     -4.204353   -0.918027    1.188424
H     -1.005960    0.454610    1.785907
H     -1.357656    1.945374    0.814693
H      5.970329   -0.182581   -2.427332
H      0.954722    1.369768    0.795502
H      1.901731    1.168387   -0.686670
H     -0.570491    0.840660   -0.635326
H     -2.412478   -1.521292   -0.159500
