47

C      1.961298    4.474844    0.307869
C      1.676098    3.155095   -0.408938
C     -4.546611   -2.104042   -1.393630
C      4.705436   -3.150694   -0.287410
C     -3.246856   -1.727520   -1.660077
C      3.497845   -2.622998   -0.117486
C     -5.203511   -1.689669   -0.248004
C     -1.046059    0.173903    1.214777
C     -2.558906    0.397624    1.374009
C      2.156107   -0.575658    0.710323
C      0.822229    2.225799    0.413664
C      1.669918    0.168955   -0.503670
C      5.804158   -2.409240    0.053316
C     -1.153635   -0.554022   -1.136878
C     -2.571099   -0.920584   -0.777837
C     -0.732690    0.530765   -0.230034
C      3.361577   -1.385301    0.378682
C     -3.191484   -0.490036    0.367054
C     -4.506417   -0.873315    0.634897
N      0.589599    1.018177   -0.317817
O     -5.117570   -0.436039    1.791069
S      4.991321   -0.873094    0.646165
H      1.106226    5.134457    0.080569
H      2.899596    4.864096   -0.153575
H      2.097777    4.251741    1.370112
H      2.600647    2.644258   -0.705818
H      1.085902    3.333848   -1.347949
H     -5.119542   -2.741379   -2.068721
H      4.888938   -4.180849   -0.702526
H     -2.786003   -2.085101   -2.566807
H      2.565439   -3.202019   -0.388937
H     -6.234220   -1.996396   -0.032534
H     -0.928628   -0.935345    1.309150
H     -0.449382    0.734045    1.937048
H     -2.877463    0.204392    2.393318
H     -2.749154    1.437643    1.077741
H      1.374502   -1.272633    1.051421
H      2.460491    0.159887    1.486795
H     -0.164053    2.724377    0.546144
H      1.228740    2.050926    1.425380
H      2.528724    0.692076   -0.949665
H      1.415926   -0.626526   -1.284441
H      6.895931   -2.563451    0.027368
H     -1.191495   -0.187004   -2.185458
H     -0.537261   -1.471431   -1.073616
H     -1.406398    1.414831   -0.469123
H     -6.065985   -0.717396    1.989084
