34

C     -3.084298   -1.755428    1.262449
C      5.740202    0.822445    0.172500
C     -4.091311    0.538442   -2.257282
C     -0.551600    0.578160    2.074170
C      0.809243    0.758365    1.918119
C      1.408262   -0.751025   -1.334598
C      2.763638   -0.576749   -1.500431
C     -0.614767   -0.484484   -0.031539
C      2.828586    0.488992    0.610784
C     -2.767700   -0.257946    1.240763
C     -1.290293   -0.052397    1.091184
C      0.742092   -0.317284   -0.212144
C      1.477129    0.319354    0.784425
C      3.503134    0.056558   -0.512237
C     -3.519375    0.329269    0.125761
O     -4.366903    1.224541    0.374535
O      4.852457    0.212148   -0.713222
O     -3.347859   -0.047993   -1.190969
H     -3.817661   -2.006969    2.049438
H     -2.124911   -2.293860    1.475134
H     -3.400570   -2.071326    0.247070
H      6.758231    0.382002   -0.032429
H      5.446092    0.593714    1.198132
H      5.804418    1.907824   -0.042491
H     -3.867221    1.641614   -2.189552
H     -5.171629    0.430646   -2.122164
H     -3.697790    0.175953   -3.212446
H     -1.083402    0.915863    2.953101
H      1.355546    1.250852    2.697525
H      0.866713   -1.247386   -2.123545
H      3.286435   -0.926267   -2.399600
H     -1.177976   -0.983065   -0.816712
H      3.399507    0.981995    1.381855
H     -3.066421    0.163440    2.199112
