34

C     -3.000271   -2.046156    1.026486
C      5.121672    2.109507    1.135548
C     -4.626485    1.505639   -0.624898
C     -0.918426    0.160171    0.802920
C      0.294453    0.761577    1.044532
C      2.435647   -1.256444   -1.093032
C      3.657728   -0.663433   -0.860378
C      0.058127   -1.370381   -0.679992
C      2.661188    0.886964    0.643325
C     -2.414376   -1.523595   -0.279368
C     -1.079431   -0.907581   -0.051666
C      1.301271   -0.767241   -0.443404
C      1.436418    0.299972    0.416258
C      3.776451    0.403215    0.002320
C     -3.390825   -0.546538   -0.825747
O     -3.947992   -0.727382   -1.945113
O      4.995797    1.022757    0.257646
O     -3.694580    0.578557   -0.097550
H     -3.953603   -2.555740    0.748269
H     -3.253433   -1.203904    1.706754
H     -2.320432   -2.789818    1.511164
H      4.407908    2.921077    0.951348
H      5.025212    1.783605    2.193176
H      6.147257    2.546791    0.961572
H     -5.302186    0.971268   -1.321405
H     -5.193901    1.944336    0.216460
H     -4.070679    2.299712   -1.154039
H     -1.807027    0.530140    1.300785
H      0.426015    1.605166    1.718781
H      2.321425   -2.092866   -1.765019
H      4.546189   -1.045710   -1.368445
H     -0.007953   -2.205188   -1.360918
H      2.699897    1.726959    1.334419
H     -2.331057   -2.355435   -0.989506
