132

C    -12.293165    2.375306    1.607977
C    -12.231404    0.903669   -0.332812
C     10.501551    3.047883   -3.578372
C     12.014452    1.777649   -2.076272
C      9.645044   -3.068244    0.593564
C      8.393669   -3.223710    1.161209
C     10.283456   -1.863257    0.654573
C      3.804149   -1.916940    2.615328
C      3.970001   -3.403222    2.772211
C      0.666257    2.641884   -0.466359
C      7.812397   -2.145745    1.781423
C      9.694380   -0.769180    1.283977
C      3.430894   -1.520907    1.211230
C      1.490438    2.260912   -1.654996
C     -9.199298   -1.358822   -0.571796
C     -8.948772   -2.834394   -0.238640
C      2.701285   -4.161075    2.444207
C     -0.528960    1.748698   -0.562836
C    -11.253245    3.226607   -0.502577
C      9.568371    1.611179   -1.680976
C      7.789599    0.185078    2.554871
C     -4.396400   -2.504554    0.550051
C     -2.633340   -0.055135   -1.631022
C    -12.268962    2.326192    0.093074
C     10.607449    1.870357   -2.695586
C      8.450329   -0.903409    1.852799
C     -9.837642    3.005100   -0.131452
C      3.245605   -0.040839    1.028479
C     -8.519202   -0.454710    0.397648
C      6.770164    0.946208    1.759881
C     -4.930647   -1.494069   -0.395921
C      9.306821    2.564059   -0.585337
C      1.113884    0.840794   -1.955766
C     -1.228255   -0.095908   -2.169688
C     -9.626094   -3.704311   -1.228727
C     -4.756116   -3.874522    0.198142
C     -9.338141    1.670193   -0.527399
C     -4.478028   -1.638968   -1.795740
C      4.467247    0.759231    1.297054
C     -7.031233   -0.578295    0.409839
C      7.300476    1.630960    0.540494
C      1.889799   -0.082901   -1.033590
C      8.849668    3.884983   -1.002429
N      1.592921   -3.804235    3.269197
N     -9.056439    4.090835   -0.759612
N     -3.490782   -0.995815   -2.259939
N     -9.015573    0.853951    0.371658
N      2.460550    0.383772   -0.046614
N      5.572315    0.187463    1.495037
N     -6.363902   -1.328468   -0.356651
N      8.492807    1.936398    0.395108
N     -0.287911    0.780070   -1.605249
O     -0.951123   -0.890804   -3.076807
O    -10.208376   -3.161825   -2.202630
O     -9.660773   -5.085869   -1.148088
O     -5.486235   -4.112590   -0.782380
O     -4.306121   -4.971141    0.931694
O     -9.215931    1.301573   -1.856770
O     -5.119826   -2.500673   -2.678977
O      4.328596    2.112330    1.313971
O     -6.340060    0.205134    1.346987
O      6.389061    1.941469   -0.486123
O      1.909727   -1.416587   -1.354575
O      9.528192    4.756837   -1.575443
O      7.514128    4.260289   -0.752555
H    -11.435148    1.875285    2.080836
H    -13.200708    1.797429    1.924311
H    -12.465539    3.404647    1.961111
H    -11.763690    0.240472    0.438401
H    -13.288158    0.490330   -0.403168
H    -11.821930    0.744884   -1.347632
H     11.197583    3.887340   -3.353596
H      9.467927    3.320352   -3.787670
H     10.882544    2.693187   -4.613001
H     12.246610    2.642796   -1.456384
H     12.729555    1.732793   -2.916418
H     12.050908    0.801251   -1.551702
H     10.134938   -3.883888    0.098112
H      7.859368   -4.164550    1.132024
H     11.274074   -1.667995    0.229447
H      4.735476   -1.421331    2.898311
H      3.027355   -1.551560    3.323906
H      4.220665   -3.614025    3.828040
H      4.775238   -3.819585    2.158808
H      1.189820    2.390979    0.497817
H      0.404578    3.721077   -0.481585
H      6.847432   -2.222479    2.238448
H     10.226254    0.177775    1.342263
H      4.219950   -1.836285    0.496853
H      2.507423   -2.077202    0.967945
H      2.559528    2.251690   -1.320803
H      1.420444    2.949307   -2.495876
H     -8.831659   -1.249822   -1.624474
H    -10.292672   -1.244681   -0.633257
H     -9.446215   -3.001906    0.763599
H     -7.901966   -3.080415   -0.102737
H      2.458085   -4.083614    1.343332
H      2.918138   -5.236407    2.590292
H     -1.405909    2.402673   -0.793182
H     -0.782057    1.275056    0.426791
H    -11.563065    4.300926   -0.330598
H    -11.361086    3.129206   -1.628048
H      9.776168    0.559858   -1.277805
H      8.613255    1.410100   -2.282395
H      7.283579   -0.207761    3.496198
H      8.531035    0.949343    2.914886
H     -4.684450   -2.276066    1.621780
H     -3.266114   -2.471256    0.599777
H     -3.069177    0.958211   -1.757156
H     -2.597912   -0.214016   -0.526306
H    -13.295608    2.713344   -0.205816
H     10.591390    0.951082   -3.380182
H     -9.660467    3.171517    0.970023
H      2.591605    0.228748    1.970726
H     -8.835055   -0.875933    1.430095
H      6.516126    1.829731    2.455102
H     -4.507778   -0.490886   -0.031628
H     10.330132    2.807111   -0.071837
H      1.330589    0.662097   -3.009120
H      0.973996   -4.558374    3.572589
H      1.706419   -2.992538    3.880028
H     -9.056526    4.950664   -0.170300
H     -9.430201    4.281759   -1.720805
H    -10.504277   -5.620504   -1.416114
H     -4.858341   -5.815288    0.936458
H     -8.320361    0.941454   -2.228409
H     -4.641656   -2.929149   -3.468530
H      4.987658    2.730477    1.713761
H     -5.439140   -0.045973    1.712583
H      6.535110    1.843211   -1.451245
H      2.779662   -1.938700   -1.363816
H      7.272520    5.248087   -0.726323
