41

C     -0.234820    2.149112   -3.354468
C     -2.304145   -2.587057    2.166330
C      3.301477   -2.553701    0.927701
C     -2.615089   -2.631068    0.826737
C     -1.672238   -1.464242    2.654399
C      2.633311   -1.719291    1.792606
C      3.278582   -2.250181   -0.414936
C     -2.294968   -1.563337   -0.005367
C     -1.365326   -0.415167    1.802322
C      1.964928   -0.613425    1.304032
C      2.600126   -1.133839   -0.882197
C     -1.663759   -0.436112    0.469305
C      1.924203   -0.287213   -0.022423
C     -1.360294    0.672845   -0.390016
C     -0.100247    0.656904   -1.182211
C      1.188839    0.891918   -0.508194
C     -1.408228    2.044083    0.173321
C     -0.738100    2.833974   -0.922485
N     -0.347874    1.906808   -1.955378
O      1.198589    1.975751    0.368725
O     -2.755477    2.463828    0.240078
O     -0.534345    4.086186   -0.967984
H      0.269959    3.149932   -3.486331
H     -1.203226    2.234301   -3.886299
H      0.450969    1.418049   -3.827501
H     -2.549301   -3.420917    2.838006
H      3.842182   -3.443261    1.297498
H     -3.108483   -3.507473    0.445598
H     -1.431863   -1.438912    3.708786
H      2.611274   -1.899105    2.856227
H      3.806174   -2.911434   -1.083951
H     -2.551691   -1.626746   -1.052846
H     -0.877454    0.447101    2.218094
H      1.451653    0.038077    2.026284
H      2.589191   -0.905511   -1.939404
H     -2.171064    0.685721   -1.220358
H     -0.040112   -0.198321   -1.876215
H      1.855797    1.328621   -1.374700
H     -0.978618    2.211502    1.151174
H      2.049946    2.453117    0.387487
H     -2.710484    3.358486    0.698554
