74

C     -8.507362    0.331901    2.500247
C     -7.520782   -2.934508   -1.886036
C      0.881352    3.016117    0.990148
C     -0.034102    2.729517   -0.210966
C      8.359452   -1.244025    0.519510
C      7.410001   -2.966969   -0.781444
C      9.620874   -1.786071    0.300556
C      8.678957   -3.512990   -1.002187
C     -3.845105    1.601879    0.864095
C      4.295236    0.387260    1.175594
C      2.282342    2.630683    0.588448
C     -2.533922    0.834688    0.806156
C      3.700131    0.812281   -0.121521
C     -6.092421    0.519257    1.106293
C     -5.617619   -1.076626   -1.032667
C      1.446902    0.990155   -0.989124
C     -3.363761   -0.071533   -1.400916
C      7.243616   -1.834707   -0.022955
C     -4.898684    0.622726    0.429468
C      0.065807    1.236236   -0.424908
C     -4.627328   -0.165940   -0.652409
C      9.773666   -2.909232   -0.453409
C     -7.058566   -0.398874    0.701199
C     -6.819076   -1.211371   -0.386122
C      5.908498   -1.309082    0.175883
C     -1.024544    0.644900   -1.190139
F     11.025200   -3.422749   -0.653604
N      5.604383   -0.173723    0.953125
N      2.410050    1.385462   -0.034183
N     -2.307743    0.470546   -0.579432
O      4.934995   -1.897391   -0.379513
O     -0.897940    0.270594   -2.393723
O     -8.246772   -0.489615    1.388951
O     -7.808848   -2.109719   -0.752597
O      0.073633    1.453199    0.100575
O     -1.217995   -0.963370   -0.467272
O      1.502192   -0.854745   -0.364511
O      0.077519   -0.486988    1.800498
P      0.074316   -0.227049    0.304458
H     -9.486696    0.143626    2.953149
H     -8.500538    1.425661    2.219305
H     -7.722129    0.118948    3.263040
H     -7.237414   -2.309632   -2.764936
H     -8.449442   -3.474165   -2.116921
H     -6.672098   -3.577155   -1.648639
H      0.838663    4.063288    1.300118
H      0.549022    2.302829    1.775852
H     -1.033300    3.128670   -0.102868
H      0.520264    3.228393   -1.070562
H      8.319384   -0.353098    1.127217
H      6.589012   -3.504236   -1.250858
H     10.508141   -1.311994    0.734651
H      8.784586   -4.410542   -1.606981
H     -4.017932    1.932966    1.908529
H     -3.847843    2.462129    0.175277
H      3.628452   -0.319455    1.715257
H      4.382915    1.278938    1.836206
H      2.909447    2.661746    1.503057
H      2.658930    3.450853   -0.071612
H     -2.705924   -0.090973    1.415399
H     -1.730003    1.382242    1.282661
H      3.642095   -0.058185   -0.801576
H      4.378199    1.539415   -0.618877
H     -6.317199    1.139593    1.964559
H     -5.413492   -1.693954   -1.873541
H      1.535436    1.517983   -1.964140
H      1.541398   -0.090428   -1.187330
H     -3.104756   -1.123548   -1.707478
H     -3.499222    0.504561   -2.340762
H      0.083605    0.771836    0.605057
H      6.431555    0.294614    1.406972
H     -0.635418    1.765018   -0.507553
H     -2.069174   -0.498538   -0.375826
H      2.194927   -0.187529   -0.490369
