86

C      8.854642   -0.102149    0.162455
C      7.516358    1.310354    1.811531
C     -0.050201   -1.896080    3.125803
C     -6.189022    1.089931    3.178069
C      4.382941    2.871701   -3.433105
C     -2.959577    2.189410   -1.257555
C      6.548308   -0.563326   -1.381761
C      2.266117   -1.348159    0.429038
C     -5.784969   -1.461406   -1.014451
C      6.489128    0.276961   -0.130552
C      1.690006   -1.737922    1.543404
C      5.638944   -1.736574   -1.243141
C      3.645495   -1.710484    0.115800
C     -4.411026   -1.355999   -0.394826
C     -4.635958    2.119945    1.237084
C     -0.993352   -1.479550   -0.201805
C     -3.192020    2.519687    1.174019
C     -1.746901   -0.303409   -0.857225
C     -5.994356   -0.503738   -2.177004
C     -5.765230   -1.235506    2.341929
C      3.540210   -0.520302   -2.054869
C      7.567934    0.491912    0.590597
C      0.297529   -1.425087    1.946451
C     -5.536408    0.152723    2.188783
C      3.687114    1.570226   -3.217093
C      4.206735   -1.311918   -1.008044
C     -4.773379    0.595888    1.225379
C     -0.496523   -0.647145    1.024756
C     -4.072051   -0.065365    0.170773
C     -1.899278   -0.251961    1.495875
C     -2.454565    1.760013    0.118296
C     -2.578459    0.254876    0.242168
O     -5.090575   -0.691033   -3.194456
O     -6.518142   -1.638693    3.283735
O      2.666103    1.271535   -3.890926
O     -2.493507   -1.422458    1.954760
O     -1.110434    2.097418    0.217680
O      4.215873    0.724352   -2.252769
H      9.690240    0.246919    0.819888
H      9.115764    0.278259   -0.856391
H      8.778779   -1.196033    0.157694
H      8.087392    2.233689    1.649265
H      7.887258    0.756126    2.710710
H      6.448150    1.558789    2.059576
H      0.665803   -2.472054    3.730928
H     -0.996733   -1.767145    3.595513
H     -6.874710    0.483712    3.807560
H     -6.819860    1.844077    2.690940
H     -5.485840    1.560142    3.858152
H      3.761926    3.540000   -4.057446
H      5.343267    2.611873   -3.958192
H      4.663715    3.282694   -2.460361
H     -3.949907    2.650935   -1.204501
H     -2.882424    1.370341   -1.984468
H     -2.267352    2.986980   -1.619827
H      7.607048   -0.947252   -1.492969
H      6.381878    0.076766   -2.241225
H      1.680231   -0.727637   -0.217447
H     -5.917134   -2.490324   -1.431415
H     -6.618181   -1.200387   -0.325290
H      5.534660    0.697355    0.156726
H      2.313788   -2.338561    2.202743
H      5.616941   -2.261053   -2.238362
H      6.001857   -2.397792   -0.455041
H      4.243200   -2.313417    0.793940
H     -4.025281   -2.288558    0.054007
H     -3.773320   -1.408812   -1.375623
H     -5.198006    2.517151    0.370376
H     -5.016037    2.550916    2.173305
H     -0.167162   -1.799166   -0.814248
H     -1.659110   -2.265782    0.153597
H     -2.669453    2.438686    2.128786
H     -3.165740    3.591089    0.879902
H     -0.877340    0.410345   -1.061835
H     -2.157038   -0.498717   -1.815059
H     -7.025005   -0.683171   -2.588660
H     -5.974655    0.520529   -1.774492
H     -5.367956   -2.001663    1.743652
H      2.486704   -0.297722   -1.865028
H      3.583310   -1.106478   -3.031442
H      0.029987    0.209515    0.580627
H     -4.328827    0.641348   -0.748721
H     -1.804278    0.480364    2.287322
H     -5.371575   -1.470132   -3.721543
H     -3.032152   -1.185751    2.759857
H     -0.964324    3.060009    0.105718
