46

C      7.236023    0.414180    1.181339
C     -2.617821    2.210623   -2.859496
C     -4.123088   -2.576919    2.375490
C     -6.078859    0.971610    0.051332
C      3.125010    0.987300    0.434584
C      4.474002    0.776787    0.666157
C      1.000678    0.183814   -0.610938
C      3.113376   -1.053848   -0.792951
C     -1.720926    0.508034   -0.849112
C     -2.209410   -1.067091    0.873922
C      2.442311    0.049260   -0.309237
C     -1.283952   -0.335496    0.146194
C      0.144706   -0.464795    0.440575
C      4.451294   -1.263283   -0.563665
C      5.133583   -0.330850    0.176680
C     -3.086705    0.626534   -1.124397
C     -3.559263   -0.980147    0.635814
C     -3.960133   -0.119414   -0.375093
O      0.442874   -1.810788    0.578955
O      5.108061   -2.400898   -1.071870
O      6.499764   -0.507105    0.433364
O     -3.567550    1.465778   -2.119407
O     -4.517340   -1.694577    1.340828
O     -5.317608   -0.009536   -0.639806
H      6.716829    0.721931    2.122453
H      8.174161   -0.090925    1.518529
H      7.533920    1.314026    0.589480
H     -1.831239    1.571647   -3.311166
H     -3.142393    2.726314   -3.688345
H     -2.108953    2.914330   -2.174997
H     -4.965482   -2.837084    3.043239
H     -3.377229   -2.006872    3.003154
H     -3.599531   -3.464338    1.997344
H     -7.129270    0.635030    0.167652
H     -6.097162    1.937543   -0.481979
H     -5.679932    1.166978    1.067880
H      2.604419    1.858193    0.818935
H      5.034413    1.507156    1.252969
H      0.786059    1.275874   -0.629130
H      0.809237   -0.235373   -1.612810
H      2.581867   -1.795577   -1.378869
H     -1.064073    1.111095   -1.460427
H     -1.856736   -1.741345    1.669800
H      0.409499    0.023654    1.410858
H      0.454236   -2.202093   -0.328062
H      4.618333   -3.091027   -1.615770
