72

C     -4.171063    2.723808   -0.311439
C      4.240853   -0.761443   -0.582580
C     -3.680712   -1.959348   -1.469314
C      8.497825    0.292171    1.026265
C     -2.888556   -3.151862    1.999461
C     -2.679162   -1.016966    3.139482
C     -0.375398    2.001591   -1.691633
C      0.964458    1.830354   -2.307425
C     -1.464861    1.757905   -2.698173
C      1.700285    0.743114   -2.163890
C     -2.821249    2.148119   -2.248247
C      1.239175   -0.387497   -1.375399
C      3.545545    1.109204    0.754135
C     -0.081756   -1.884399    2.415535
C      5.328039    2.899456    0.716521
C     -3.226955    1.664060   -0.900283
C      3.184355    0.025479    0.104642
C     -3.241579   -0.825245   -0.563956
C      7.164188    0.933795    0.925158
C      4.978126    1.523090    0.789878
C      1.774277   -0.368489    0.067478
C     -1.080211   -1.645449    1.315317
C      1.246431   -2.118794    1.805835
C     -4.081112    0.390476   -0.975655
C     -3.463478   -1.105001    0.860831
C     -2.506446   -1.699992    1.798995
N      6.018439    0.740929    0.886625
O     -0.859815   -2.595834    0.321192
O      2.014210   -2.796664    2.537923
O     -4.534646    0.232402   -2.271842
O     -4.578248   -0.805468    1.314357
O      1.463019   -1.599955    0.593020
S      7.122138    2.855716    0.799315
H     -5.018251    2.796524   -1.024339
H     -4.591821    2.385352    0.657028
H     -3.696339    3.706384   -0.254415
H      3.799266   -1.556253   -1.231812
H      4.873141   -1.221513    0.206837
H      4.886084   -0.147322   -1.211642
H     -3.162077   -1.823761   -2.438614
H     -3.521247   -2.957329   -1.029249
H     -4.774099   -1.863673   -1.667116
H      9.317722    1.006870    0.781185
H      8.560841   -0.582035    0.359888
H      8.598299   -0.072482    2.070115
H     -2.629320   -3.692492    1.073020
H     -3.991566   -3.260853    2.143347
H     -2.365383   -3.605585    2.865875
H     -2.192860   -0.014295    3.154622
H     -3.773159   -0.824034    3.254644
H     -2.381773   -1.655266    3.989111
H     -0.463792    1.427512   -0.777836
H     -0.467799    3.082427   -1.374135
H      1.319689    2.689113   -2.909407
H     -1.211740    2.406348   -3.590559
H     -1.455129    0.723429   -3.098600
H      2.658487    0.714277   -2.650022
H     -3.552123    1.729336   -2.998165
H     -2.952669    3.266722   -2.326941
H      0.139236   -0.450276   -1.272401
H      1.554319   -1.380885   -1.794151
H      2.843175    1.740631    1.282875
H     -0.346339   -2.806126    3.005123
H     -0.068389   -1.072164    3.167844
H      4.682482    3.825490    0.628014
H     -2.416154    1.433713   -0.208349
H     -2.196000   -0.520214   -0.774127
H      1.176575    0.397347    0.596825
H     -0.959950   -0.652527    0.839513
H     -4.936198    0.421609   -0.301780
H     -0.642971   -3.482673    0.667078
H     -5.388282    0.739408   -2.421421
