69

C      6.933101   -1.931027    2.285484
C     -5.705812   -0.508032   -1.276209
C     -6.519650   -1.748857   -1.059840
C     -2.968605    3.459286   -1.434798
C     -2.965464    3.643365   -0.067762
C     -2.682463    2.202476   -1.926029
C      7.460963    1.283354   -1.623154
C      8.345541    0.592300   -0.795710
C     -5.722438    0.425765   -0.097240
C     -6.122910   -2.568278    0.111044
C     -2.678027    2.569989    0.741940
C     -2.396323    1.134518   -1.110046
C      6.123783    1.120510   -1.407706
C      7.877357   -0.226993    0.205325
C     -0.593674    0.054731    1.279100
C     -5.032469   -0.129691    1.108259
C     -4.668128   -2.579013    0.430977
C      0.107447   -0.201749   -0.000801
C      2.166054    0.911693    0.589804
C      2.176014   -0.937527   -0.917596
C      3.617028    0.579965    0.968334
C      3.466851   -0.291368   -1.352133
C     -2.389838    1.307283    0.265446
C     -2.095168    0.183511    1.180385
C      5.653694    0.285672   -0.387834
C      6.536376   -0.388001    0.418475
C     -2.762581   -1.083010    0.840030
N      1.546905   -0.317485    0.207494
N      4.252306    0.191881   -0.257949
N     -4.168062   -1.265015    0.792850
O     -2.049736   -2.083468    0.570005
O      6.063425   -1.214991    1.429132
H      7.763194   -1.255228    2.603208
H      6.404715   -2.282681    3.180767
H      7.380289   -2.784934    1.742081
H     -6.183698    0.043940   -2.126519
H     -4.671149   -0.691351   -1.570595
H     -6.454769   -2.352460   -1.990779
H     -7.583238   -1.462434   -0.943458
H     -3.194648    4.300850   -2.104761
H     -3.190441    4.632352    0.315138
H     -2.697421    2.105921   -3.022346
H      7.802443    1.926606   -2.409640
H      9.400346    0.746775   -0.997783
H     -5.202776    1.356573   -0.402580
H     -6.777014    0.756767    0.136513
H     -6.682920   -2.238384    1.011904
H     -6.434914   -3.619319   -0.094468
H     -2.678235    2.727117    1.830545
H     -2.185239    0.174458   -1.555305
H      5.420055    1.650724   -2.041891
H      8.607323   -0.739098    0.817230
H     -0.237630    0.907818    1.850878
H     -0.415014   -0.849630    1.932925
H     -4.545601    0.618273    1.735066
H     -5.863209   -0.534624    1.765941
H     -4.546178   -3.220936    1.351368
H     -4.067246   -3.047980   -0.381738
H     -0.231576   -1.130502   -0.486171
H      0.001503    0.615554   -0.746575
H      2.199673    1.575607   -0.295693
H      1.671452    1.417671    1.414193
H      2.365973   -2.034024   -0.746480
H      1.475026   -0.888496   -1.779870
H      4.083944    1.435726    1.474387
H      3.612513   -0.302381    1.643635
H      3.280007    0.530842   -2.076165
H      4.060570   -1.072882   -1.882792
H     -2.491606    0.511973    2.194868
