82

C      1.355113   -3.623784    0.632025
C     -1.415933    3.522517   -0.165508
C      0.137887   -2.743953    0.590651
C     -0.152860    2.873095    0.343198
C      2.522888   -3.018032   -0.130121
C     -2.654326    2.714512    0.173045
C     -1.038476   -3.414411   -0.101697
C      0.994223    3.037463   -0.635508
C      6.022554   -1.202239    0.295139
C     -6.401827    1.017299    0.044537
C      2.984526   -1.716428    0.489299
C     -2.700169    1.501614   -0.716283
C      5.072383   -1.627881   -0.798265
C     -5.078713    1.713013   -0.127216
C     -2.244618   -3.490297    0.786480
C      2.222512    3.591227    0.051425
C     -4.157707   -2.882574   -0.722779
C      4.639945    3.097293    0.101412
C      6.341197    0.266316    0.137865
C     -6.304381   -0.281517    0.779588
C     -5.352515   -1.918527   -0.702857
C      5.465835    2.280915   -0.853090
C      3.735910   -0.926868   -0.570710
C     -3.991465    0.746227   -0.574302
C     -3.307185   -2.500698    0.468537
C      3.259217    2.526140    0.320196
C      4.036246    0.478623   -0.134843
C     -3.928738   -0.352238    0.448481
N      5.311436    0.865333   -0.686838
N     -5.170012   -1.072437    0.447673
O     -2.864445   -1.213356    0.275457
O      3.043746    1.384804   -0.470626
H      1.181872   -4.630372    0.199127
H      1.729942   -3.797032    1.669307
H     -1.543552    4.507424    0.344540
H     -1.379360    3.744449   -1.246682
H     -0.144873   -2.533776    1.649904
H      0.375571   -1.806002    0.049703
H      0.154808    3.349608    1.303973
H     -0.324025    1.788978    0.493672
H      3.368086   -3.724797   -0.062989
H      2.192244   -2.877435   -1.174451
H     -3.523053    3.358501   -0.082681
H     -2.626740    2.458606    1.241645
H     -1.241801   -2.984559   -1.096427
H     -0.713877   -4.473604   -0.292307
H      0.651901    3.721605   -1.450548
H      1.237913    2.071573   -1.115021
H      5.621590   -1.448416    1.304074
H      6.949800   -1.810694    0.175487
H     -7.041902    1.703293    0.662270
H     -6.935067    0.937321   -0.932167
H      2.133716   -1.101439    0.852026
H      3.625119   -1.977695    1.345536
H     -1.830013    0.837300   -0.547944
H     -2.648542    1.864006   -1.772553
H      4.968744   -2.713047   -0.894126
H      5.476062   -1.193783   -1.749820
H     -4.772174    2.069965    0.887931
H     -5.228064    2.537127   -0.844749
H     -1.888256   -3.278042    1.830707
H     -2.694190   -4.493479    0.824242
H      2.627302    4.426729   -0.564422
H      1.940690    4.010360    1.049692
H     -4.467156   -3.926882   -0.730918
H     -3.597776   -2.643570   -1.659279
H      5.202094    3.234025    1.053252
H      4.551595    4.124345   -0.335968
H      7.354942    0.394760   -0.262864
H      6.222223    0.720124    1.156074
H     -7.220417   -0.882102    0.514442
H     -6.386480   -0.083008    1.876856
H     -6.293611   -2.492507   -0.535043
H     -5.451582   -1.360640   -1.632656
H      6.517001    2.594111   -0.751956
H      5.100546    2.528999   -1.883810
H      3.132039   -0.965064   -1.488268
H     -4.297511    0.335167   -1.547676
H     -4.010458   -2.470278    1.347962
H      3.233028    2.163857    1.377682
H      4.144331    0.462285    0.977848
H     -3.814924    0.092551    1.473011
