60

C     -3.939233    2.922538   -0.453787
C     -2.074291    2.418683    1.049582
C     -6.975018   -1.723675   -0.329483
C      6.738485    1.641272   -0.563358
C      5.735227    1.535247    0.545098
C      6.625231    0.412887   -1.458690
C      2.271511   -1.043166    0.270788
C      1.641054   -0.118860   -0.393631
C     -2.194058   -2.418001    1.042001
C      4.369309    1.144796   -0.033944
C      5.770514   -0.606947   -0.778548
C      3.747611   -1.162192    0.208797
C     -0.723220   -1.892375    0.941474
C     -3.248956    1.862218    0.330525
C     -2.730620   -1.655499   -0.133855
C      0.229459    0.082684   -0.405655
C     -2.857872    0.642700   -0.515732
C     -2.198900   -0.303615    0.327679
C     -4.137738   -0.094769   -0.874613
N      4.395411   -0.169221   -0.595432
N     -0.805446   -0.642380    0.216344
N     -4.097894   -1.379018   -0.231287
O     -0.130968    1.122779   -1.110154
O     -5.085755    0.322875   -1.605670
O     -5.408678   -2.431469    1.777700
O     -5.246987   -3.741918   -0.245676
S     -5.441485   -2.325681    0.278622
Cl     0.689235    0.000000    0.000000
H     -3.500881    3.062255   -1.465977
H     -3.758335    3.904923    0.071965
H     -5.035136    2.810947   -0.480730
H     -1.430071    1.588803    1.462882
H     -1.476829    3.054329    0.364356
H     -2.379145    3.035713    1.918289
H     -7.648466   -2.600864   -0.532537
H     -6.808901   -1.211900   -1.285012
H     -7.419260   -1.056757    0.441341
H      6.485487    2.536906   -1.175336
H      7.742318    1.783907   -0.162042
H      6.031992    0.878725    1.379908
H      5.574124    2.556915    0.978026
H      6.196050    0.702285   -2.453804
H      7.596677   -0.050301   -1.673955
H      1.764017   -1.760007    0.919659
H      2.266748    0.551079   -1.009138
H     -2.639103   -2.141042    1.992922
H     -2.156058   -3.480090    0.808149
H      3.667306    1.200271    0.818316
H      4.144700    1.957024   -0.762244
H      6.219215   -0.794506    0.232870
H      5.796436   -1.576942   -1.307562
H      4.043607   -2.191704   -0.159001
H      4.191718   -1.108673    1.240323
H     -0.151565   -2.662878    0.370124
H     -0.379965   -1.695707    1.952608
H     -3.989132    1.529422    1.121793
H     -2.233821   -1.997763   -1.056206
H     -2.431479    0.942739   -1.473577
H     -2.508944   -0.167002    1.387444
H     -0.689235    0.000000    0.000000
