58

C     -4.102705    4.596836    1.319918
C     -1.956968   -3.655608   -0.043423
C     -2.644522    4.273524    1.508332
C      7.832960    1.928534    1.617559
C      7.464526    2.519933    0.429860
C      7.341542    0.659431    1.873970
C      6.631960    1.888318   -0.493882
C      6.520525    0.038630    0.961206
C      1.877909    0.981533   -1.741487
C      1.886264   -0.824279   -0.248928
C      3.263321    0.957949   -1.813585
C      3.269699   -0.897461   -0.279888
C     -3.253425   -1.663310   -0.911704
C     -3.109094   -0.326220    1.192579
C     -2.952576    2.006837    1.206706
C     -3.274466   -3.003982   -0.285734
C      1.164737    0.100640   -0.965980
C     -2.536939   -0.574768   -0.162655
C      6.148403    0.628264   -0.231515
C      3.938696    0.009865   -1.074333
C     -4.068868   -3.896435   -1.208131
C     -0.286402    0.180277   -0.936027
N     -1.102546   -0.681374   -0.169643
N     -3.555893   -4.989418   -1.620607
O     -5.345909   -3.543665   -1.611465
O     -0.847005    1.065307   -1.630865
O     -4.282609   -5.794284   -2.457445
O     -2.433003    3.010608    2.031281
O     -2.688541    0.814367    1.816469
O      5.314021   -0.064525   -1.103765
H     -4.753923    4.033780    1.989341
H     -4.339384    4.359072    0.245505
H     -4.305595    5.700343    1.445882
H     -1.569258   -3.512721    0.987864
H     -2.029665   -4.788297   -0.130723
H     -1.182789   -3.384094   -0.768450
H     -2.060461    4.449529    0.572305
H     -2.244817    5.000389    2.246219
H      8.482995    2.432387    2.329139
H      7.855907    3.521405    0.234004
H      7.614613    0.160920    2.808078
H      6.361413    2.382194   -1.419336
H      6.153370   -0.951777    1.190580
H      1.392170    1.749061   -2.344010
H      1.382808   -1.536253    0.372993
H      3.836007    1.646108   -2.420416
H      3.825832   -1.631904    0.290605
H     -2.834492   -1.767584   -1.934340
H     -4.313719   -1.350758   -1.065988
H     -4.228278   -0.228275    1.075514
H     -2.960227   -1.173984    1.894214
H     -4.074924    2.135602    1.201703
H     -2.636565    2.118965    0.166194
H     -3.891207   -3.026356    0.667741
H     -2.766797    0.362390   -0.769599
H     -0.650121   -1.409954    0.414642
H     -5.993877   -4.235870   -2.002181
H     -4.282107   -6.799843   -2.244297
