61

C     -0.789968    4.620317   -0.205024
C      2.639459   -2.112853    0.733031
C     -3.478273    0.254619   -0.818912
C     -1.598924    2.582195   -1.692602
C      1.715760   -1.113046   -1.800847
C     -0.649183    3.423660    0.298180
C      0.259845   -2.189219    1.506645
C     -1.782201   -3.196241   -1.118350
C     -1.017521   -1.475964    1.462647
C     -2.543464   -2.249740   -0.250496
C      0.379901    1.542741   -0.816812
C      4.656217    1.165827    1.023110
C      1.190716   -2.045543    0.345028
C     -2.399062    0.115728    0.260448
C     -0.723382   -2.392559   -1.748498
C      1.055493    0.457011   -0.065603
C      3.198390    0.947273    1.092857
C     -0.616034   -1.111778   -1.018755
C     -1.803097    1.415593    0.518253
C     -0.890887    2.116621   -0.402647
C      0.834176   -0.915192   -0.583148
C     -1.566073   -1.113724    0.105205
O      5.140897    1.062897   -0.283338
O     -0.098367   -2.786451   -2.695174
O      2.618353    1.004360    2.194639
O     -1.329479    1.629683    1.836122
O      2.476256    0.685377   -0.018560
H     -0.591251    5.515589    0.380052
H     -1.107721    4.804740   -1.220131
H      2.919328   -3.214845    0.764555
H      2.816580   -1.788531    1.781211
H      3.313255   -1.694207   -0.013822
H     -3.747213    1.351676   -0.910682
H     -4.453062   -0.198896   -0.514054
H     -3.193114   -0.178970   -1.774315
H     -1.869345    1.728223   -2.341978
H     -2.400879    3.284502   -1.505668
H     -0.808296    3.117128   -2.263854
H      2.050196   -2.167664   -1.881664
H      2.673278   -0.558538   -1.574034
H      1.242686   -0.744200   -2.725839
H     -0.320332    3.344210    1.336714
H      0.074757   -3.273551    1.769745
H      0.841137   -1.827810    2.407157
H     -2.420335   -3.737475   -1.845520
H     -1.270895   -3.995476   -0.511104
H     -0.984527   -0.609759    2.157877
H     -1.792600   -2.128243    1.991112
H     -3.428459   -1.921510   -0.774002
H     -2.865448   -2.803007    0.653322
H      1.143851    2.386825   -0.830026
H      0.401677    1.232338   -1.903123
H      5.234584    0.498601    1.699668
H      4.909443    2.219657    1.339462
H      1.009473   -3.015028   -0.238679
H     -3.013749   -0.101506    1.197328
H      0.766130    0.505432    1.002133
H     -0.827445   -0.333699   -1.762875
H     -2.728384    2.099835    0.538944
H      5.592542    0.176607   -0.365984
H     -2.045410    1.705957    2.482537
