41

C     -4.165207   -3.028485   -0.165991
C     -1.437490    2.162264    1.826186
C     -4.108025   -1.633487   -0.746511
C      5.438451   -0.626589   -0.248796
C      4.895988   -1.312714    0.852464
C      4.655699   -0.227763   -1.284248
C      3.534756   -1.560791    0.813997
C      3.288816   -0.486170   -1.298555
C      1.256237   -1.347039   -0.103108
C      0.568474   -0.031162   -0.273149
C     -0.766559    2.389069    0.476183
C      2.729072   -1.160041   -0.238157
C     -0.876565    0.080406    0.047562
C     -1.012354    3.798949    0.047359
C     -1.774791   -0.872595   -0.655883
N     -1.247278    1.441183   -0.448670
O     -1.330377    4.055785   -1.124521
O     -0.883400    4.821340    0.981777
O     -1.466427   -1.656540   -1.493497
O     -3.146139   -0.798048   -0.240273
H     -3.207228   -3.511198    0.007125
H     -4.779327   -3.643881   -0.856036
H     -4.789335   -3.018451    0.790089
H     -2.294947    1.488931    1.678294
H     -0.716037    1.701691    2.489888
H     -1.789754    3.134621    2.185431
H     -5.128342   -1.173306   -0.634873
H     -4.012515   -1.800052   -1.861270
H      6.521539   -0.444926   -0.195075
H      5.489644   -1.639919    1.674498
H      5.084948    0.309040   -2.131317
H      3.051977   -2.097487    1.641914
H      2.718881   -0.143374   -2.149906
H      1.015637   -1.784465    0.848428
H      0.933380   -2.006208   -0.942508
H      1.148020    0.785285    0.183536
H      0.612920    0.242519   -1.408586
H      0.312868    2.310416    0.615318
H     -1.067097    0.009345    1.147002
H     -2.277211    1.462947   -0.599763
H     -0.980905    5.810899    0.793643
