32

C      4.646337    0.275301    0.426440
C      2.269346    0.846444    0.967259
C     -2.717383    1.687431    0.546096
C     -4.180460   -0.032258   -0.153937
C      3.201805   -0.105647    0.251960
C     -3.989634    1.264165    0.251667
C      0.869427    0.390238    0.646051
C     -1.613566    0.856469    0.450286
C     -3.107938   -0.918855   -0.270244
C     -1.843743   -0.452476    0.035744
C      0.664504   -0.853164    0.254103
C     -0.261147    1.287064    0.757589
C     -0.677312   -1.322288   -0.063076
C      1.798474   -1.833044    0.118322
O     -5.058666    2.140508    0.365441
O     -3.243766   -2.221324   -0.670253
O     -0.076784    2.476917    1.131084
O     -0.891191   -2.519955   -0.442823
O      2.155461   -1.903459   -1.246447
O      2.932978   -1.375522    0.783576
H      5.224559   -0.474110    1.007035
H      5.156507    0.451550   -0.553670
H      4.679466    1.254990    0.952118
H      2.449767    0.781652    2.073349
H      2.383169    1.898530    0.612961
H     -2.525389    2.706135    0.870450
H     -5.152551   -0.435601   -0.402360
H      2.914556   -0.118571   -0.826609
H      1.495649   -2.846097    0.415762
H     -4.934145    3.088647    0.660081
H     -4.119023   -2.662040   -0.916637
H      1.550694   -1.331631   -1.784890
