28

C      4.636809   -0.570421    0.621301
C      4.047334    0.517833   -0.241084
C     -4.578362    0.194991    0.242942
C     -3.973939   -1.054572    0.373993
C     -3.894534    1.267545   -0.272966
C     -2.645004   -1.213929   -0.029226
C     -2.587375    1.067411   -0.657987
C     -0.546311   -0.341249   -0.966343
C     -1.953400   -0.141763   -0.547638
C      0.337502   -0.050342    0.225061
C      1.769850   -0.213248   -0.060837
O      0.048574    1.256560    0.635724
O      2.176937   -1.338127   -0.440931
O      2.711345    0.792610    0.059604
H      5.735228   -0.403563    0.659460
H      4.228266   -0.495906    1.642358
H      4.487186   -1.573503    0.169670
H      4.158505    0.286552   -1.318152
H      4.635972    1.450955   -0.001322
H     -5.606084    0.333154    0.550775
H     -4.530856   -1.879784    0.781259
H     -4.382916    2.221840   -0.364055
H     -2.197109   -2.190807    0.081501
H     -2.030914    1.894878   -1.065709
H     -0.302003    0.386048   -1.786582
H     -0.404627   -1.365918   -1.361655
H      0.011069   -0.755210    1.038700
H      0.648856    1.917963    0.229637
