30

C      4.424118    0.037960    1.132850
C      4.932623    0.133657   -0.141894
C      3.078708   -0.039480    1.302144
C      4.090400    0.150536   -1.227112
C     -2.068390   -1.338588   -0.600450
C      2.175656   -0.026677    0.235096
C     -1.449904   -0.171102   -0.479830
C      2.714908    0.069613   -1.022035
C     -3.524774   -1.335672   -0.517845
C     -2.311154    1.020106   -0.272185
C     -4.316706   -0.212226   -1.079886
C     -3.550711    1.014909   -1.096398
C      0.734874   -0.112114    0.462132
N     -0.033787   -0.095512   -0.549998
O      1.867686    0.087098   -2.122883
O     -4.083748   -2.335315    0.054929
O     -2.573867    1.062154    1.116473
O      0.272787   -0.207117    1.767064
O     -4.752987    0.809747   -0.253447
H      5.078827    0.022741    2.014627
H      5.998572    0.195393   -0.282940
H      2.655510   -0.115962    2.305547
H      4.494310    0.227024   -2.248330
H     -1.499881   -2.253073   -0.753610
H     -1.738796    1.964251   -0.469360
H     -5.048424   -0.461916   -1.876856
H     -3.715817    1.780735   -1.878935
H      2.232323    0.157349   -3.066506
H     -3.472592    0.656844    1.301566
H     -0.609762   -0.685365    1.926806
