47

C      4.401970    2.577443    0.471080
C     -3.083924   -1.968608   -0.106689
C     -3.247351    1.527246   -1.592039
C     -4.385272    0.592304    0.390378
C     -4.777946   -0.336781   -1.809100
C      4.123752    1.586830   -0.631345
C      3.425851   -2.282488    0.858752
C      2.425757   -1.343232    0.976245
C      4.868255   -0.727519   -0.218252
C      5.636536   -3.031741    0.190059
C     -2.603626   -0.741118   -0.817343
C      4.647813   -1.997879    0.268588
C      3.898034    0.223029   -0.116516
C      2.688122   -0.069610    0.471379
C     -0.829568    0.117489    0.802021
C      0.410897    0.602889    1.203888
C     -1.294296    0.180609    2.086126
C     -0.068156    0.661125    2.485799
C     -3.701305    0.266909   -0.885118
N      6.444476   -3.883384    0.105747
N     -1.313306   -0.266333   -0.479873
N      1.676608    0.918148    0.578169
O     -2.361945   -0.065768    2.746528
O      0.421220    1.018774    3.614159
H      3.656212    3.406248    0.375067
H      4.258014    2.154033    1.485507
H      5.384419    3.027557    0.349180
H     -2.476936   -2.827239   -0.464571
H     -4.117290   -2.169900   -0.523087
H     -3.211751   -1.899404    0.963874
H     -3.300033    1.359529   -2.687355
H     -3.925215    2.348555   -1.252471
H     -2.200001    1.707388   -1.277928
H     -3.881405    1.417417    0.964400
H     -5.423913    0.962203    0.164444
H     -4.531027   -0.301916    1.030322
H     -5.276549    0.450832   -2.396795
H     -4.327071   -1.045757   -2.528903
H     -5.536962   -0.883160   -1.225441
H      5.016794    1.559849   -1.291555
H      3.297194    1.932292   -1.290952
H      3.243215   -3.279485    1.245078
H      1.460327   -1.554341    1.438349
H      5.845194   -0.522086   -0.683729
H     -2.506915   -1.107124   -1.914648
H     -0.620016   -0.186543   -1.300788
H      1.771117    1.892716    0.229358
