82

C     -3.751436   -3.432658    1.572015
C      0.226231   -2.643030   -3.925522
C      4.534313   -0.256303    4.215261
C      0.862824   -2.311353    2.652512
C     -3.437615    1.511383    2.000312
C     -3.900901    1.423642   -0.316240
C      2.676393    3.698010   -0.352056
C     -2.519748    2.591727    1.753250
C     -2.981241    2.498440   -0.521891
C      2.212937    4.537050    0.619179
C      5.249929    0.890875   -0.597748
C     -4.314489   -2.862684   -1.787021
C      5.172562    0.105954   -1.878650
C     -4.778192   -3.578547   -0.554224
C      2.663828    2.116901   -2.149066
C     -4.914949   -0.333064    1.111483
C      0.481287    3.016992   -1.071795
C     -1.945756   -2.339919   -2.287116
C      4.219226    0.227716    1.543066
C     -1.830097   -0.834083    0.106370
C     -4.104697    0.943527    0.951719
C      1.851372    2.925833   -1.212377
C     -3.018605   -2.179625   -1.465752
C      4.032095    0.465831    0.197509
C     -2.303061    3.058497    0.509918
C     -2.991824   -1.425458   -0.256849
C      2.800065    0.646293   -1.859199
C     -4.365838   -1.468329    0.314302
C      0.841360    4.603611    0.733636
C      0.004517    3.862274   -0.088823
C     -0.774679   -1.704710   -1.866395
C     -0.667560   -0.958491   -0.704924
C      3.131139   -0.225862    2.233833
C      2.823744    0.265945   -0.430423
C      1.902824   -0.434452    1.597761
C      1.667611   -0.211624    0.254007
N      3.943250    0.090386   -2.563550
N     -4.648370   -2.790371    0.680388
O      0.375249    5.479806    1.742343
O      0.319530   -1.897591   -2.757540
O      3.303971   -0.467712    3.588706
O      0.939153   -0.901255    2.515666
O     -1.351531    4.121007    0.258147
O      0.543468   -0.394714   -0.418751
H     -2.703835   -3.444860    1.152416
H     -3.788126   -3.096727    2.606021
H     -4.032576   -4.528128    1.594137
H     -0.469107   -2.198519   -4.668175
H     -0.085652   -3.679227   -3.679231
H      1.231010   -2.697360   -4.377938
H      5.368403   -0.783131    3.689368
H      4.758866    0.834946    4.157972
H      4.556173   -0.542036    5.268769
H      1.273693   -2.829970    1.772159
H     -0.185765   -2.666273    2.773648
H      1.479400   -2.582823    3.530371
H     -3.449204    1.340822    3.112473
H     -4.339284    1.198957   -1.333966
H      3.775107    3.653660   -0.437913
H     -2.070981    2.941905    2.731175
H     -2.954827    2.775721   -1.619804
H      2.870736    5.112851    1.258066
H      5.373291    1.959134   -0.680202
H      6.133600    0.432850   -0.031094
H     -4.080813   -3.707430   -2.525306
H     -5.035074   -2.260906   -2.319051
H      5.418509   -0.957884   -1.608688
H      5.964234    0.443350   -2.588313
H     -4.160540   -4.484679   -0.414048
H     -5.829764   -3.945447   -0.663135
H      3.751618    2.467934   -2.160237
H      2.454589    2.256269   -3.247925
H     -4.985423   -0.775941    2.124797
H     -5.997126   -0.230487    0.907936
H     -0.230598    2.444099   -1.756535
H     -1.984229   -2.916115   -3.203968
H      5.194469    0.399577    2.011881
H     -1.688133   -0.251637    1.081765
H      1.909566    0.178806   -2.309762
H     -5.048085   -1.309482   -0.621279
H      4.027073    0.409618   -3.525424
H     -0.599486    5.608700    1.913569
