82

C     -5.908786   -0.402775    1.495283
C      0.021761   -5.270594   -0.946708
C      7.008603   -2.136929   -0.378971
C      3.296058   -4.013570   -1.450198
C     -4.101394    2.462717   -1.162213
C     -2.773785    0.969198   -2.458773
C      1.706763    4.652021    0.689546
C     -3.161148    3.539366   -1.395933
C     -1.860662    2.055951   -2.671312
C      1.038484    5.775406    0.265263
C      4.265138    1.027017    2.412263
C     -4.267298   -3.063163   -0.331517
C      3.109597    1.157339    3.352188
C     -5.133184   -2.459342    0.703370
C      2.365759    2.382314    0.881584
C     -4.711892    0.042827   -1.164612
C      0.621229    3.186433   -0.873036
C     -1.910418   -3.402796   -0.525473
C      4.981456   -0.621123    0.743783
C     -1.366780   -0.635368   -0.287826
C     -3.873581    1.220136   -1.688796
C      1.540001    3.350159    0.166119
C     -2.924023   -2.488607   -0.311846
C      3.913503    0.131983    1.279420
C     -2.092757    3.262017   -2.129176
C     -2.649620   -1.108191   -0.190108
C      1.718635    1.074938    1.395060
C     -3.937021   -0.418443    0.091826
C      0.136223    5.551885   -0.759548
C     -0.046358    4.296028   -1.283509
C     -0.652660   -2.903718   -0.615549
C     -0.293460   -1.537705   -0.508852
C      4.669161   -1.525945   -0.226262
C      2.616795   -0.037660    0.838495
C      3.383804   -1.672842   -0.629383
C      2.259788   -0.937959   -0.117787
N      1.811854    1.082747    2.807012
N     -4.832583   -1.131855    0.902285
O     -0.550571    6.702557   -1.196493
O      0.316616   -3.919784   -0.836488
O      5.690019   -2.315173   -0.815918
O      3.206796   -2.635257   -1.642649
O     -1.078847    4.297050   -2.333787
O      1.028262   -1.236659   -0.634926
H     -6.011833    0.650202    1.152823
H     -6.928826   -0.848316    1.322614
H     -5.801406   -0.445846    2.624365
H      0.967809   -5.809374   -1.153781
H     -0.662948   -5.509387   -1.807544
H     -0.382452   -5.713722    0.001774
H      7.354952   -1.090129   -0.549235
H      7.117551   -2.341873    0.724375
H      7.638005   -2.877586   -0.909427
H      3.009657   -4.276572   -0.416804
H      4.367194   -4.328812   -1.627034
H      2.668752   -4.517288   -2.223468
H     -4.908892    2.938452   -0.556936
H     -2.390692    0.074365   -3.020827
H      2.434821    4.840840    1.511737
H     -3.509691    4.507881   -0.916099
H     -1.032030    1.696873   -3.347974
H      1.197751    6.751617    0.687442
H      4.752222    1.955032    2.123298
H      5.044728    0.398568    2.999988
H     -4.219437   -4.182433   -0.083688
H     -4.762059   -2.970152   -1.332067
H      3.207600    2.170153    3.830374
H      3.188894    0.382111    4.161393
H     -5.093957   -3.013967    1.682587
H     -6.243329   -2.513979    0.352569
H      3.313533    2.091046    0.408996
H      2.699958    2.853818    1.856318
H     -5.705627    0.246132   -0.795025
H     -4.914175   -0.757215   -1.879017
H      0.540185    2.170713   -1.391383
H     -2.131110   -4.479508   -0.614332
H      5.987084   -0.489017    1.081412
H     -1.069273    0.464643   -0.248598
H      0.693271    0.971651    1.055063
H     -3.783626    0.537344    0.638158
H      1.176976    0.525574    3.360972
H     -0.389056    7.593531   -0.789191
