86

C      6.620944   -0.873576   -3.411891
C      1.762843   -1.081173   -2.188019
C      0.335333    0.624977    1.890769
C     -0.053752    2.471645    0.268980
C     -1.674345   -0.216318   -2.002142
C      8.581719    2.549818   -0.242201
C     -7.892947   -4.070865    0.190740
C     -7.240916    2.575747    1.959584
C     -6.791690   -3.774656    0.950823
C     -8.276406   -3.225579   -0.818553
C     -6.330334    1.629628    2.423800
C     -7.626541    2.478950    0.644095
C      5.577188    1.025528    2.936527
C     -6.050764   -2.606367    0.701713
C     -7.540789   -2.080019   -1.055056
C     -5.828420    0.628035    1.598318
C     -7.127691    1.489375   -0.163242
C      5.201913    1.439331    1.653788
C      5.741842   -0.331834    3.176147
C     -4.226020   -0.725816   -0.553272
C     -3.579249    0.599977   -0.915205
C      5.173699   -0.808304    0.931825
C     -1.497139    0.446923    0.325931
C      5.499305   -0.403870   -2.541167
C      3.138680   -0.531357   -1.973350
C     -6.421617   -1.755102   -0.301192
C     -6.212716    0.534929    0.293938
C      5.001420    0.519596    0.655922
C      5.545675   -1.268971    2.188745
C     -5.712733   -0.504083   -0.639653
C      5.684616    0.500040   -1.605904
C      3.291110    0.367269   -1.039231
C      4.597251    0.968995   -0.745127
C      7.044644    1.051147   -1.418275
C      2.136013    0.823022   -0.253989
C     -0.121326    0.962499    0.461787
N      4.221386   -0.973407   -2.780419
N     -2.155374    0.589620   -0.913388
N      5.713047   -2.660943    2.437217
O      8.003243    0.697753   -2.100909
O      2.378468    1.702637    0.641883
O      5.480323   -3.544915    1.381528
O      6.048784   -3.134778    3.513310
O      7.270787    2.014422   -0.429495
O      0.855438    0.393461   -0.400683
H      7.401372   -1.376985   -2.839648
H      6.976687    0.003301   -3.984549
H      6.176127   -1.582070   -4.161234
H      1.412654   -1.622147   -1.292125
H      1.085168   -0.341893   -2.599695
H      1.884018   -1.900526   -2.963233
H      1.011546   -0.240465    1.867714
H      0.778689    1.517300    2.379917
H     -0.520709    0.337518    2.533541
H      0.442539    2.920284    1.145974
H      0.516760    2.731371   -0.656224
H     -1.068188    2.915151    0.114008
H     -1.072442   -1.071202   -1.646903
H     -2.531160   -0.695121   -2.567205
H     -1.160857    0.409880   -2.757531
H      8.813130    2.646616    0.856899
H      8.550555    3.583761   -0.627893
H      9.321239    1.899892   -0.746126
H     -8.433601   -4.997579    0.431127
H     -7.626492    3.351880    2.609191
H     -6.458096   -4.424169    1.761485
H     -9.144652   -3.449976   -1.425923
H     -6.039513    1.721703    3.460972
H     -8.332863    3.177481    0.204333
H      5.734458    1.754182    3.719201
H     -5.187562   -2.369818    1.299917
H     -7.855449   -1.406125   -1.867004
H     -5.130037   -0.074347    2.009603
H     -7.433789    1.423317   -1.186827
H      5.072583    2.504469    1.469032
H      6.036487   -0.657152    4.184373
H     -3.970510   -1.045144    0.460749
H     -3.865850   -1.486059   -1.251654
H     -3.902404    0.793695   -1.981769
H     -4.019415    1.451408   -0.350322
H      5.014230   -1.529659    0.141001
H     -2.122747    1.007815    1.091629
H     -1.489784   -0.639653    0.626804
H     -5.991234   -0.157937   -1.674618
H      4.536223    2.094626   -0.725513
H      4.047986   -1.691015   -3.510493
