87

C     -0.977906    5.664290   -0.843191
C      2.051050    6.348266    0.227565
C      6.703547   -1.988175   -0.919487
C     -3.524911   -5.333543    0.870614
C      3.480961   -3.746744   -0.921475
C     -6.592815   -3.678414    1.239955
C     -1.818602    2.590477    1.157830
C     -1.397628    3.545489    0.393068
C     -2.162082    1.131551    0.925730
C      2.081857    3.796225    0.344256
C      1.867790    2.320625    0.536830
C      5.159528   -1.179777    0.775691
C      3.670504   -1.032616    0.998386
C      0.202183    5.312915    1.239697
C     -2.130004   -3.394246    0.219725
C      1.004317    1.049610   -1.362872
C      1.525104   -0.959781   -0.154548
C     -3.866491   -1.635794    1.244757
C     -3.733537    0.801853   -1.106666
C     -1.047308    4.982420    0.563106
C      1.529774    4.935934    0.578513
C      5.378842   -2.254038   -0.221513
C     -3.289112   -3.878583    0.622453
C      4.244044   -2.442944   -1.187513
C     -2.864637    0.411152    0.102917
C      2.254888    1.520543   -0.729463
C      0.913262   -0.462811   -1.423491
C     -1.841095   -1.959582   -0.041609
C     -4.428090   -2.959028    0.846591
C     -1.145749   -1.900808   -1.355543
C      3.025970   -0.651114   -0.290267
C     -3.038448   -1.118385    0.098025
O     -5.056454    0.372089   -0.869881
O     -1.331386   -2.917686   -2.099813
O     -3.816856   -1.486454   -1.040705
O     -5.333634   -3.466614    1.780126
O     -0.397242   -0.811708   -1.647768
O      3.446735   -1.375468   -1.384107
O      3.273880    0.660833   -0.546301
H     -1.970152    5.594941   -1.327909
H     -0.789236    6.729550   -0.639721
H     -0.159769    5.262903   -1.436387
H      1.598211    6.704122   -0.720619
H      1.608547    7.085680    0.998875
H      3.070173    6.597363    0.275193
H      6.540049   -1.105547   -1.590158
H      7.422469   -1.650184   -0.153732
H      7.052337   -2.869000   -1.474446
H     -4.240272   -5.701890    0.110335
H     -3.984116   -5.510298    1.862333
H     -2.605665   -5.917885    0.779826
H      4.120909   -4.605293   -1.269429
H      2.573018   -3.735625   -1.536843
H      3.289993   -3.918850    0.133137
H     -7.031750   -2.732776    0.846336
H     -6.613242   -4.499822    0.501435
H     -7.251759   -3.990993    2.074273
H     -1.998833    2.755733    2.290413
H     -1.186250    3.409001   -0.752484
H     -1.569366    0.645586    1.837832
H      3.126602    3.684861   -0.213334
H      0.940689    1.915570    0.839730
H      2.634526    1.940387    1.293121
H      5.718454   -1.346434    1.717061
H      5.514598   -0.201661    0.377768
H      3.553904   -0.218933    1.744122
H      3.226712   -1.931672    1.470710
H      0.123845    4.947886    2.287768
H      0.153859    6.438562    1.408526
H     -1.304294   -4.102300    0.061856
H      0.854227    1.444586   -2.403557
H      0.098516    1.384693   -0.816544
H      1.128679   -0.465439    0.740832
H      1.469205   -2.076115   -0.058600
H     -4.601235   -0.921289    1.630478
H     -3.146362   -1.823569    2.084186
H     -3.406153    0.153703   -1.981954
H     -3.806966    1.766284   -1.476015
H     -1.831085    5.635522    1.021944
H      5.501349   -3.222022    0.331290
H      4.750944   -2.648920   -2.182730
H      2.665234    2.330346   -1.411659
H      1.612013   -0.779729   -2.255633
H     -1.041247   -1.685371    0.715854
H     -4.998733   -2.862780   -0.114061
H     -5.555396    1.119596   -0.475459
H     -3.277429   -1.832436   -1.763578
