76

C     -6.831036    1.327424   -1.810051
C      6.235826    2.367149   -0.795218
C      4.753842    4.262129   -1.313046
C     -6.578357    0.338598   -0.678790
C     -5.112343   -4.176041    1.110359
C     -3.933039   -4.316611    0.437949
C     -5.428175   -2.928592    1.606622
C      4.766500   -0.833005    3.469865
C      4.147547   -1.760514    4.306864
C     -1.620353    0.182411   -2.790985
C     -3.090355   -3.216422    0.270755
C     -4.596128   -1.844400    1.440719
C      4.233402   -0.574268    2.232227
C      3.005244   -2.400459    3.865408
C     -2.569149   -0.628724   -1.889785
C     -0.279170    0.108376   -2.075275
C      2.568759   -0.325066   -0.590465
C     -2.541124   -0.797553    0.604377
C      1.336025   -2.036912    0.786278
C     -1.770177    1.218132   -0.457263
C     -3.380389   -1.965189    0.752971
C      2.361552   -1.137546    0.596251
C      3.098284   -1.187638    1.753104
C      2.511124   -2.107974    2.619757
C      2.129835    1.119406   -0.487322
C      0.715416    1.315721   -0.167969
C      3.991789    2.508786    0.190449
C     -4.152192    0.691532   -0.541842
C      4.762232    2.761647   -1.035517
C     -2.768814    0.089758   -0.577869
N      4.363455    2.015203   -2.194393
N      1.437615   -2.599791    1.982272
N      2.947949    1.855068    0.400041
N     -0.422736    0.884462   -0.874286
O      0.479791    1.981360    0.910577
O      4.580753    3.152532    1.342906
O     -4.262350    1.914638   -0.377288
O     -5.233879   -0.108322   -0.689808
H     -6.502180    0.834948   -2.755734
H     -6.344149    2.295172   -1.655113
H     -7.924328    1.483992   -1.867797
H      6.580512    2.887848    0.107927
H      6.341873    1.279723   -0.779543
H      6.788109    2.747749   -1.692923
H      5.748551    4.546092   -1.660910
H      3.967489    4.397555   -2.107463
H      4.440740    4.764380   -0.384113
H     -7.213676   -0.546198   -0.881489
H     -6.877679    0.758840    0.286532
H     -5.810377   -5.005347    1.270510
H     -3.681919   -5.279805    0.050883
H     -6.379425   -2.832466    2.144351
H      5.648520   -0.348092    3.830128
H      4.535614   -1.989785    5.284968
H     -1.966504    1.208687   -2.859063
H     -1.503224   -0.330528   -3.752138
H     -2.146518   -3.399252   -0.267909
H     -4.933673   -0.918000    1.874362
H      4.720334    0.128100    1.595206
H      2.534448   -3.124035    4.532644
H     -3.548256   -0.629933   -2.437840
H     -2.178960   -1.656182   -1.777411
H      0.515036    0.548663   -2.696771
H     -0.095285   -0.971914   -1.835636
H      3.699966   -0.293751   -0.796257
H      2.176682   -0.727276   -1.541804
H     -2.542186   -0.132183    1.525011
H     -1.458336   -1.115402    0.547414
H      0.570476   -2.249691    0.061307
H     -1.785723    1.599620    0.593654
H     -2.096891    2.084421   -1.067184
H      2.251522    1.615545   -1.512243
H      4.626881    2.578136   -3.056504
H      4.912509    1.140204   -2.266829
H      0.758188   -3.324306    2.348999
H      4.314665    2.825168    2.266200
