67

C      0.928623    4.395817    2.399291
C     -0.125782   -3.220972   -1.796959
C     -3.620528   -4.205761   -1.097048
C      1.127714    4.261795    0.924026
C     -4.283518    1.401721   -0.685822
C     -4.834724    1.734108    0.539260
C     -3.068599    0.763515   -0.754696
C     -4.166949    1.425605    1.707020
C      5.266108   -0.848321    0.377161
C      3.943508   -0.760795   -0.458666
C      2.378875    0.993094   -0.857886
C     -0.031334   -1.893616   -1.053815
C     -2.372640    0.440658    0.396561
C     -2.930484    0.773957    1.604493
C      1.134467    0.192963   -0.547399
C     -1.069789   -1.459398   -0.400370
C     -1.054702   -0.194996    0.351580
C      0.092348    0.642139    0.094599
C     -2.314195   -2.262914   -0.415806
C      0.133359    2.046180    0.567225
Cl    -2.189699    0.365550    3.162327
N      5.792769   -2.168138    0.197184
N      1.142341   -1.119780   -1.175505
O     -3.320049   -1.857793    0.209209
O     -0.906464    2.519788    1.174533
O     -2.422244   -3.445219   -1.089907
O      3.473351    0.466820   -0.278281
O      1.139699    2.948474    0.457527
C     -1.473369    0.811969    0.849724
C     -0.176178    0.298936    0.939051
C     -2.190144    0.762292   -0.328333
C     -0.340094   -0.309096   -1.351785
C      0.386353   -0.265659   -0.181256
C      1.741348   -0.826115   -0.171109
N     -1.599957    0.201113   -1.398090
O      2.250534   -1.341019   -1.198254
O      2.531097   -0.817264    0.971561
H      1.237085    5.445191    2.679930
H      1.542006    3.721401    3.010313
H     -0.153510    4.345286    2.683669
H     -0.241116   -4.044895   -1.096934
H     -0.796948   -3.169198   -2.650423
H      0.908908   -3.364650   -2.237252
H     -4.521283   -3.595933   -1.189644
H     -3.647259   -4.841516   -0.188450
H     -3.527456   -4.913788   -1.955836
H      2.073053    4.771814    0.651841
H      0.311545    4.833774    0.421351
H     -4.768218    1.621389   -1.632381
H     -5.800054    2.239837    0.533983
H     -2.578317    0.474062   -1.670624
H     -4.600649    1.686714    2.659346
H      5.965955   -0.063181    0.027104
H      5.006568   -0.608871    1.427423
H      4.192716   -0.965759   -1.512706
H      3.330174   -1.588063   -0.002656
H      2.503258    0.868805   -2.035921
H      2.305543    2.052128   -0.779328
H     -0.887320   -0.562480    1.428001
H      5.543098   -2.595369   -0.711457
H      6.827349   -2.188024    0.311461
H      1.933408   -1.493151   -1.720645
H     -1.958590    1.265245    1.701802
H      0.380790    0.340706    1.865213
H     -3.203000    1.170660   -0.371756
H      0.130395   -0.761631   -2.222124
H      3.520816   -0.530138    0.895355
