57

C     -7.805889    0.529269    2.538805
C     -7.648816    1.572349    1.661131
C     -6.882248   -0.487429    2.521950
C     -6.570817    1.597557    0.769639
C     -5.812624   -0.458637    1.634689
C      6.085898   -0.281081    0.574314
C      5.917905    2.010713    0.151108
C      7.377506   -0.077984    1.099482
C      7.181168    2.206956    0.664665
C      0.021486    0.108470   -2.643285
C      1.298360    0.329960   -2.113957
C      1.883757   -2.288941    0.319843
C      3.303885   -1.726697    0.186708
C     -0.153037   -1.770292   -1.222777
C     -3.864170   -0.702478   -0.449888
C     -5.643794    0.576806    0.752942
C      5.318306    0.742384    0.087828
C      1.099023   -1.555527   -0.701798
C      7.916911    1.170253    1.140501
C     -0.717297   -0.961866   -2.188576
C     -4.531955    0.645523   -0.194610
C      1.835354   -0.492210   -1.151900
C      3.987871    0.653823   -0.435758
C     -4.452931    0.361715   -2.400663
N      9.216903    1.369143    1.670174
N     -5.021462    1.054928   -1.484931
N      3.121689   -0.452916   -0.468453
N     -3.541789   -0.566831   -1.848360
O      3.506225    1.740701   -0.953520
O     -4.751322    0.559084   -3.763263
O     -2.394367   -1.002052   -4.213627
O     -2.520909   -2.837627   -2.613520
S     -2.308206   -1.339549   -2.765139
Cl     0.687262    0.000000    0.000000
H     -8.662019    0.540494    3.224352
H     -8.387134    2.367681    1.687168
H     -7.027399   -1.306361    3.228722
H     -6.499423    2.451735    0.097254
H     -5.124649   -1.287190    1.674851
H      5.704198   -1.275546    0.540876
H      5.371177    2.873086   -0.215895
H      7.934231   -0.941411    1.471537
H      7.614392    3.212261    0.696769
H     -0.393655    0.749148   -3.390959
H      1.867759    1.161641   -2.472699
H      1.469613   -2.189200    1.321557
H      1.935437   -3.348626    0.001840
H      3.949402   -2.435246   -0.347185
H      3.607622   -1.562584    1.254466
H     -0.716455   -2.623054   -0.846588
H     -4.545470   -1.553542   -0.254205
H     -3.001627   -0.776059    0.213246
H     -3.784461    1.401072    0.124522
H     10.076533    0.906363    1.295199
H      9.392850    2.011465    2.492784
H     -5.231537    1.396357   -4.076556
H     -0.687262    0.000000    0.000000
