59

C     -3.019625   -1.913109    1.626312
C     -0.780697   -2.240690   -0.309296
C      8.791906    2.091481    0.664198
C      9.153652    0.009983   -0.376808
C      7.441262    1.813309    0.717857
C      7.811386   -0.269944   -0.325541
C     -6.777771   -0.192790    1.191961
C     -5.422945   -0.392878    0.945840
C     -7.305600   -0.914619   -0.983274
C     11.071295    1.481241    0.048627
C      4.488211    1.134174    0.744343
C      2.015146    0.799377    0.854334
C     -3.220762   -0.216928   -1.800286
C     -4.231358    3.200828   -1.577577
C     -2.369700    2.110152   -1.341929
C     -2.695554   -0.849590    0.536361
C      9.697917    1.187195    0.108345
C      6.911139    0.644198    0.232937
C     -7.742306   -0.444565    0.245395
C     -5.008265   -0.859213   -0.276343
C     -5.949282   -1.120113   -1.240465
C      5.496583    0.341976    0.260772
C      1.025922   -0.100478    0.534702
C     -0.383042   -0.009729    0.727224
C      3.564684   -0.643700    0.012023
C     -3.560188   -1.058432   -0.640599
F     -9.071528   -0.252932    0.473752
F     -5.614952   -1.614587   -2.469733
N     12.257734    1.752700   -0.010245
N     -2.940222    3.330851   -1.295286
N     -4.431450    1.898012   -1.792830
N      4.901579   -0.793780   -0.205804
N     -1.277785   -1.046652    0.307243
N      3.258456    0.495935    0.580537
N     -3.302120    1.200000   -1.653718
O     -0.845964    1.012996    1.279553
O     -3.505408   -2.415197   -1.065339
S      1.958342   -1.435472   -0.190974
H     -3.988975   -2.370711    1.487480
H     -2.269714   -2.741042    1.571876
H     -2.887206   -1.423135    2.600663
H     -1.525984   -2.934740   -0.708563
H     -0.203269   -1.908167   -1.225147
H     -0.032552   -2.790271    0.319189
H      9.157356    3.028500    1.060884
H      9.831392   -0.726925   -0.817458
H      6.723749    2.518973    1.152548
H      7.374877   -1.194286   -0.703616
H     -7.073243    0.180772    2.186331
H     -4.692543   -0.163554    1.710970
H     -8.018266   -1.130166   -1.768050
H      4.688860    2.098096    1.175449
H      1.670052    1.755982    1.343364
H     -2.148735   -0.459219   -2.109155
H     -3.793489   -0.520165   -2.701106
H     -5.006151    3.965943   -1.635015
H     -1.313731    1.910572   -1.168729
H     -2.857319    0.148893    0.975433
H     -4.023798   -2.964357   -0.448307
