87

C      1.004783    5.431529   -0.025681
C     -2.503789    4.830492    0.807903
C     -6.386207   -0.688248   -0.871733
C      2.550459   -3.298168    2.572535
C     -5.017978   -4.119426   -0.667929
C      5.454752   -1.502411    3.661256
C      2.464104    2.713242   -1.324802
C      1.859969    3.063840   -0.230425
C      3.642342    1.825075   -1.637334
C     -2.224258    2.437989    0.739139
C     -1.521073    1.216166    0.297538
C     -4.872641   -1.303217    1.027662
C     -3.505289   -1.926390    0.947704
C     -0.606293    3.676799   -0.510287
C      2.030680   -1.937080    0.585547
C     -1.101513   -0.021477   -1.864452
C     -1.520107   -1.950758   -0.438432
C      3.902104   -0.059782    1.075888
C      5.411927   -0.015775   -1.827942
C      0.700184    3.934527    0.121670
C     -1.775752    3.618171    0.347436
C     -5.673848   -1.801550   -0.136981
C      2.820690   -2.167025    1.613576
C     -4.918581   -2.649775   -1.097498
C      4.133295    0.662363   -1.334687
C     -2.114730    0.574870   -0.939194
C     -0.833536   -1.473580   -1.697294
C      2.220679   -0.838712   -0.414917
C      4.010547   -1.337510    1.869484
C      1.679435   -1.307641   -1.714875
C     -2.966910   -1.540799   -0.438111
C      3.611165   -0.420222   -0.372507
O      6.286467    0.465615   -2.681922
O      2.428580   -1.121760   -2.718336
O      4.371855   -1.614804   -0.540797
O      4.189466   -1.070986    3.227346
O      0.470786   -1.896694   -1.841647
O     -3.631521   -2.308053   -1.351545
O     -3.198955   -0.224934   -0.673359
H      1.349330    5.674396   -1.031925
H      1.841935    5.646565    0.697121
H      0.111591    5.952572    0.310948
H     -2.301866    5.681536    0.110385
H     -2.253384    5.095933    1.854962
H     -3.613212    4.691702    0.788150
H     -6.186463   -0.773191   -1.976599
H     -7.494320   -0.753182   -0.780930
H     -6.110740    0.317224   -0.491798
H      2.692888   -2.880105    3.590879
H      3.372694   -4.027631    2.415389
H      1.567856   -3.752133    2.414780
H     -5.663918   -4.707187   -1.351263
H     -4.027221   -4.612422   -0.681275
H     -5.515793   -4.194504    0.336534
H      6.268272   -0.987661    3.102169
H      5.582315   -2.583573    3.553778
H      5.596913   -1.249076    4.727628
H      2.119190    3.101958   -2.372235
H      2.174809    2.686299    0.829123
H      4.201750    2.531209   -2.421494
H     -3.112461    2.338930    1.387752
H     -0.423519    1.342676    0.227205
H     -1.671584    0.466197    1.131689
H     -5.369781   -1.455554    2.007597
H     -4.735038   -0.195075    0.884874
H     -3.546864   -3.029185    1.057121
H     -2.823388   -1.565529    1.743971
H     -0.803803    4.518343   -1.246471
H     -0.482595    2.800246   -1.183383
H      1.181964   -2.638015    0.495440
H     -1.335683    0.195079   -2.942849
H     -0.132598    0.507610   -1.692042
H     -0.997781   -1.715463    0.490447
H     -1.520076   -3.079313   -0.508609
H      4.866313    0.451971    1.202235
H      3.064000    0.560178    1.453658
H      6.034066   -0.258935   -0.888228
H      5.120835   -1.024717   -2.288522
H      0.504941    3.868316    1.254618
H     -6.487861   -2.453150    0.301261
H     -5.475651   -2.589409   -2.081229
H     -2.544938    1.454370   -1.515940
H     -1.413398   -1.995385   -2.527373
H      1.532941   -0.003976   -0.076641
H      4.952213   -1.829239    1.513495
H      7.145751    0.821056   -2.320564
H      3.890081   -2.204654   -1.166074
