62

C     -6.371174   -2.373474   -1.318540
C     -3.791526   -1.704558   -2.429249
C     -5.148469    0.362406    2.698109
C     -1.942952    2.155035   -1.767044
C      4.850442    2.805757   -2.449890
C      6.751502   -2.736396    2.170225
C      6.204906   -1.665593    2.844500
C      6.512018   -2.826870    0.815592
C      5.436765   -0.707073    2.181309
C      5.752402   -1.875906    0.168786
C     -2.625539    0.979156    1.503537
C     -1.729188    1.781926    0.629178
C     -5.395985   -1.512792   -0.602724
C     -4.161714   -1.174117   -1.099543
C     -4.842231   -0.194765    1.354399
C      5.196107   -0.796148    0.825216
C     -3.598007    0.123477    0.808989
C      2.329823    1.218596   -0.267457
C     -5.722575   -0.998070    0.658344
C     -3.267247   -0.376697   -0.428365
C      3.111020    0.279814    0.394858
C      2.915797    2.057618   -1.214556
C      0.073182    1.053387   -0.910385
C      4.959196    0.999862   -0.789934
C     -1.395089    1.200912   -0.696319
N      2.471172   -0.554469    1.351986
N      0.942463    1.373186   -0.027326
N      4.235190    1.920260   -1.450903
N      4.415375    0.173123    0.134026
O     -6.953130   -1.319203    1.182928
O      2.202862    2.902150   -1.807547
O      0.499920    0.547769   -2.120216
O      6.186907    0.880754   -1.017891
O     -2.021679   -0.041847   -0.941972
H     -6.745403   -1.753868   -2.186023
H     -5.860017   -3.240002   -1.784248
H     -7.202814   -2.661774   -0.665351
H     -4.393201   -1.187115   -3.204733
H     -4.000589   -2.791793   -2.491226
H     -2.684975   -1.596780   -2.617809
H     -5.771077   -0.395681    3.253916
H     -4.202297    0.430801    3.284541
H     -5.730856    1.288100    2.670065
H     -2.924691    2.537931   -1.386231
H     -1.293339    3.015065   -1.915153
H     -2.119981    1.587669   -2.704525
H      4.422618    3.811080   -2.340664
H      5.918108    2.880846   -2.161432
H      4.741371    2.386601   -3.476799
H      7.347693   -3.474247    2.702538
H      6.397138   -1.602991    3.902587
H      6.951726   -3.677100    0.305652
H      5.020937    0.115946    2.718980
H      5.564942   -1.947730   -0.895065
H     -3.228607    1.729080    2.098116
H     -2.056053    0.418380    2.299716
H     -0.752334    1.886648    1.189709
H     -2.080526    2.852228    0.542901
H      2.135031   -1.496857    1.076163
H      2.311579   -0.270891    2.350743
H     -7.271724   -0.994859    2.071411
H      1.426798    0.194098   -2.293656
