63

C     -4.986620   -1.185151    1.594203
C     -5.113301    1.243742    2.214096
C     -0.032808   -0.945425    0.626090
C      1.772209    1.343622   -1.829905
C      6.596178   -1.238144    1.683900
C      6.236144   -0.456544    2.762745
C      5.760094   -1.362827    0.587828
C      5.017508    0.196699    2.715405
C      0.750250   -1.213239   -2.670523
C     -0.537855   -0.461991   -2.620185
C     -0.211108    1.476528    0.593334
C     -1.602107    1.955115    0.658802
C      3.085969   -1.119406   -1.724513
C     -2.986695   -0.914963   -1.131066
C      1.596573   -1.101525   -1.462819
C      4.539316   -0.693053    0.568966
C      3.536493   -0.638304   -0.366267
C      4.161464    0.092291    1.636330
C     -4.435949   -0.646858   -0.950570
C     -2.185293    0.049502   -0.814237
C      2.570401    0.191203    0.174895
C     -4.767223    0.565164   -0.166786
C     -4.486712    0.213189    1.298889
C      0.096451    0.299909   -0.260633
C      1.474574    0.276198   -0.817250
C     -0.877020    0.285350   -1.409480
C     -2.669501    1.000824    0.249099
N      2.945572    0.634689    1.385868
O     -5.246679   -1.430473   -1.451925
O     -0.922503    1.665251   -1.791686
O     -3.800732    1.587718   -0.314113
O     -3.126373    0.323929    1.375487
H     -4.129550   -1.897694    1.615872
H     -5.758038   -1.518861    0.868673
H     -5.466849   -1.171071    2.594186
H     -6.157653    1.466898    1.940509
H     -5.071442    0.821339    3.239929
H     -4.461264    2.134159    2.207844
H     -0.609321   -0.705327    1.568305
H     -0.459521   -1.797330    0.086102
H      0.993223   -1.163817    1.053861
H      1.623581    0.979933   -2.866742
H      2.885447    1.546086   -1.778035
H      1.307937    2.316640   -1.618718
H      7.558164   -1.767904    1.695102
H      6.918291   -0.385801    3.599488
H      6.007146   -1.960092   -0.265598
H      4.771207    0.800346    3.581452
H      1.405513   -0.926056   -3.549751
H      0.589149   -2.320582   -2.852638
H     -1.341998   -1.196774   -2.944548
H     -0.532005    0.204994   -3.542046
H      0.154061    1.221010    1.635839
H      0.477511    2.311317    0.276144
H     -1.706652    2.866007    0.033174
H     -1.796444    2.329646    1.709501
H      3.472994   -2.123973   -1.906941
H      3.415423   -0.380838   -2.452578
H     -2.583993   -1.824330   -1.492425
H      1.380659   -1.922746   -0.782672
H     -5.781678    0.932714   -0.314869
H      2.456158    1.267796    2.047400
H     -1.710773    1.871290   -2.299913
