61

C     -7.754165   -0.474902   -0.110925
C     -4.318114   -0.356476    4.256663
C      2.726682   -1.359397    1.653538
C      2.056252   -0.114056    2.231888
C      7.335950   -0.501523   -0.130924
C      2.635285   -1.352868    0.151250
C      0.844580    0.221760    1.345003
C      5.949098   -0.368124   -0.227994
C      1.964474    0.399013   -2.702364
C      1.052150    1.493674   -2.230170
C      7.765270   -0.313046   -1.414368
C     -4.927093    0.057683   -0.514510
C     -3.292654    0.097505    1.720257
C     -3.572582    0.305679   -0.627222
C     -2.742868    0.328574    0.482605
C      2.656323    0.094614   -0.329693
C      1.437991    0.846780    0.096342
C      5.577569   -0.112162   -1.509069
C     -5.471556   -0.175564    0.754069
C     -4.638055   -0.150268    1.847519
C     -3.014265    0.537936   -1.866865
C      4.322033    0.114951   -2.186755
C     -0.898221    0.798793   -0.893608
N     -3.730269    0.534893   -2.969677
N     -1.438547    0.574567    0.303164
N     -1.690271    0.777153   -1.955165
N      3.037256    0.188283   -1.697278
N      0.496924    1.027744   -0.950956
O      4.431905    0.274211   -3.468587
O     -6.811678   -0.426181    0.921475
O     -5.167337   -0.382813    3.133629
O      6.753684   -0.093783   -2.181459
Cl     0.687857    0.000000    0.000000
H     -7.707893   -1.433578   -0.687521
H     -8.793643   -0.455352    0.332441
H     -7.647401    0.407914   -0.756281
H     -4.986932   -0.427872    5.154003
H     -3.571865   -1.175554    4.277913
H     -3.816991    0.641035    4.362742
H      3.738459   -1.500410    2.025078
H      2.111303   -2.213553    2.057352
H      1.762660   -0.287646    3.274719
H      2.753344    0.723359    2.171430
H      7.966369   -0.702987    0.711306
H      1.716050   -1.870198   -0.138029
H      3.477911   -1.869239   -0.349348
H      0.248593    0.954169    1.903869
H      0.255091   -0.680735    1.155614
H      5.323513   -0.477243    0.639777
H      1.361291   -0.541078   -2.715781
H      2.407801    0.573144   -3.680518
H      1.711084    2.367148   -1.917976
H      0.340867    1.870340   -2.937792
H      8.811021   -0.339144   -1.766661
H     -5.594399    0.034573   -1.347553
H     -2.632668    0.119751    2.565276
H      3.491581    0.578913    0.292573
H      1.749082    1.904301    0.399025
H     -4.714785    0.370625   -3.020414
H     -1.335198    0.936670   -2.935060
H     -0.687857    0.000000    0.000000
