48

C     -3.679181   -4.073875   -0.438089
C     -2.492572    4.948174    0.977734
C     -1.322542    5.467633    0.466494
C     -2.555095    3.580148    1.185035
C     -0.249851    4.650307    0.171500
C      1.805139   -0.640946   -1.447913
C      3.023387   -0.846770   -2.046377
C      2.843307   -0.647879    0.655670
C     -2.138523    0.263307    1.464109
C     -1.587718   -2.992969   -1.337962
C      6.295098   -0.821906   -0.518522
C      1.685368   -0.536702   -0.085737
C     -1.480458    2.768271    0.888571
C     -1.290713    1.421989    0.997635
C     -0.303785    3.280779    0.375763
C     -2.031388   -0.754996    0.344380
C      4.192590   -0.959003   -1.297356
C      4.079210   -0.854727    0.078893
C     -0.449222   -2.396189   -0.550734
C     -0.028922    1.095111    0.565847
C      0.394279   -0.314666    0.603965
C     -2.814784   -1.987109    0.603453
N      0.535943    2.262302    0.195814
N     -2.706418   -3.014334   -0.376800
N     -0.653548   -1.153380    0.130792
O      0.661178   -2.934429   -0.465319
O     -3.546804   -2.180699    1.600745
O      5.522205   -1.163591   -1.639476
O      5.384409   -1.003542    0.549976
H     -3.329142   -4.858175   -1.146742
H     -4.642882   -3.641648   -0.754646
H     -3.791230   -4.541260    0.582523
H     -3.347848    5.571242    1.216777
H     -1.274880    6.535215    0.305148
H     -3.449004    3.114444    1.584866
H      0.665680    5.056893   -0.228555
H      0.876497   -0.550585   -2.023954
H      3.107409   -0.928289   -3.132095
H      2.791802   -0.570171    1.751482
H     -1.689475   -0.093618    2.404707
H     -3.171509    0.598891    1.550790
H     -1.330140   -4.013047   -1.635614
H     -1.883534   -2.331739   -2.170735
H      7.132487   -1.524755   -0.339640
H      6.693949    0.203289   -0.579432
H     -2.464673   -0.274515   -0.560515
H      0.527068   -0.563496    1.699210
H      1.488836    2.351019   -0.175667
