50

C     -3.333204   -1.621255    2.345584
C     -3.859676    4.291376   -0.323325
C     -2.513055    4.562229   -0.493693
C     -4.226204    2.973886   -0.266765
C     -1.575721    3.577123   -0.601159
C     -3.250666    1.976209   -0.380290
C      3.484015   -0.649870    1.999008
C      5.429539    0.436836    1.240419
C     -0.686354   -3.564826   -1.547686
C      4.183026   -1.069413    3.138969
C      6.111037    0.006904    2.388265
C     -0.239854   -2.699451   -2.732629
C     -2.088279   -2.655590    0.504021
C     -2.054607   -0.241314    0.695382
C     -2.465452   -1.498236    1.148148
C     -1.924847    2.214265   -0.544671
C      4.108010    0.108876    1.040361
C     -1.280444   -2.584000   -0.619450
C     -1.256247   -0.148170   -0.422855
C     -0.932974    1.212423   -0.811487
C     -0.897455   -1.332338   -1.032776
C      1.406635    0.733440   -1.624627
C      3.413446    0.552567   -0.139046
C      1.051917   -0.474105   -2.423236
N      5.467863   -0.724880    3.288691
N      0.244996    1.519459   -1.267586
N      2.051757    0.259578   -0.421372
N      0.042483   -1.456636   -2.120436
O      4.007186    1.258786   -1.025722
O      1.713035   -0.631984   -3.461483
H     -3.630726   -0.650700    2.760471
H     -2.726875   -2.202340    3.100554
H     -4.216214   -2.263691    2.141398
H     -4.587915    5.084194   -0.238882
H     -2.247818    5.630474   -0.536872
H     -5.272619    2.734556   -0.134228
H     -0.524730    3.797290   -0.734256
H     -3.651713    0.964484   -0.395694
H      2.450345   -0.953078    1.923930
H      6.009802    1.028963    0.546800
H      0.181683   -4.089259   -1.099455
H     -1.423635   -4.260467   -1.950152
H      3.724141   -1.663089    3.906199
H      7.149136    0.254784    2.562401
H     -1.004923   -2.678228   -3.530064
H      0.728555   -3.113242   -3.136094
H     -2.416541   -3.595299    0.869093
H     -2.308593    0.647205    1.241827
H      2.144926    1.309102   -2.199823
H      1.493809   -0.313550    0.253853
