41

C      3.239715   -2.239752   -2.442266
C      3.009687   -0.981573   -1.918293
C      2.181745    4.892040    1.519452
C      1.406733    4.269977    2.495063
C     -3.889557   -2.149522    0.001516
C     -3.559958   -0.235935   -1.392777
C     -3.115770   -1.522002    1.126715
C     -2.750384    0.450116   -0.353051
C      2.225915   -3.111581   -0.462525
C      2.840527   -3.334697   -1.701091
C      2.407983   -0.761284   -0.704257
C      2.301012    2.841745    0.412370
C      1.526968    2.195792    1.370070
C      2.686972    1.782217   -0.528859
C      1.299306    0.779674    1.002052
C     -0.895115   -0.358457    1.077716
Cl     3.082962   -4.977417   -2.270687
N     -4.532729   -1.141193   -0.828537
N      2.606332    4.148928    0.500698
N      1.104232    2.964915    2.397794
N      2.033593   -1.876071   -0.015671
N     -2.253128   -0.491167    0.616797
N      2.175395    0.532480   -0.156728
O      3.398003    2.026686   -1.539956
O     -0.495838   -1.147400    1.950248
O     -0.065742    0.602676    0.571820
H      3.726384   -2.359527   -3.419347
H      3.311396   -0.110408   -2.473711
H      2.416058    5.953272    1.619047
H      1.050471    4.875211    3.341535
H     -3.272942   -2.804380   -0.638777
H     -4.722743   -2.757997    0.439496
H     -2.890746   -0.790370   -2.068126
H     -4.153452    0.530642   -1.950708
H     -2.552652   -2.321890    1.655751
H     -3.843072   -1.032352    1.822560
H     -3.319397    1.235545    0.217998
H     -1.893645    0.982341   -0.832446
H      1.928792   -4.008409    0.082235
H      1.553676    0.098094    1.809182
H     -5.306988   -0.648970   -0.332304
