58

C      5.208906    1.730515    0.579374
C     -4.249236    2.691384   -0.701149
C     -3.510759    2.074006    1.622618
C     -2.093705   -1.533423    1.985636
C     -3.208081   -2.416799   -0.023039
C      0.481172   -1.749362   -3.347532
C      4.251522   -0.351977   -0.586788
C      3.250813    0.240856   -1.256891
C     -0.505993    1.161228   -1.806471
C     -1.636908    1.751699   -1.229232
C     -4.699610    0.477649    0.203948
C     -4.246892   -0.573244    1.177852
C      6.190138   -0.415636    0.848043
C     -1.005506   -0.853812   -0.686123
C      1.777376   -1.715845   -1.194321
C      5.221585    0.281303    0.246738
C     -0.184587   -0.169803   -1.525730
C      2.348856   -0.588186   -2.067117
C     -2.453316    1.022509   -0.374045
C     -2.134297   -0.276347   -0.107390
C      7.199684   -0.014849    1.738769
C     -3.689762    1.648474    0.208824
C     -2.938648   -1.142441    0.789059
C      0.952300   -0.866153   -2.140504
O      8.034672   -0.925627    2.183187
O      7.445923    1.231609    2.219866
H      5.940240    2.189200   -0.147480
H      5.504140    1.982347    1.594504
H      4.182151    2.189557    0.427817
H     -3.969753    3.724463   -0.445366
H     -5.367457    2.675975   -0.783682
H     -3.870163    2.528234   -1.752816
H     -3.263739    3.144694    1.733871
H     -2.676911    1.514305    2.110352
H     -4.437568    1.919311    2.247049
H     -2.492549   -2.500784    2.385799
H     -2.093971   -0.740995    2.748989
H     -1.066838   -1.674705    1.611046
H     -4.230471   -2.793550    0.173732
H     -3.051994   -2.244679   -1.116016
H     -2.501459   -3.211555    0.303390
H     -0.402599   -1.318529   -3.797603
H      1.317800   -1.883908   -4.052996
H      0.183512   -2.729472   -2.886804
H      4.262813   -1.447900   -0.706937
H      3.182116    1.292560   -1.165482
H      0.149195    1.690676   -2.476001
H     -1.873855    2.766058   -1.438895
H     -5.725817    0.813081    0.361340
H     -4.596239    0.022391   -0.827856
H     -4.274287   -0.202623    2.230603
H     -5.080650   -1.355744    1.161431
H      6.163755   -1.489840    0.532389
H     -0.782565   -1.896009   -0.445144
H      2.035814   -2.754651   -1.433482
H      1.696995   -1.548247   -0.097125
H      2.963249   -1.066304   -2.930356
H      8.371460    1.688915    2.101472
