41

C     -2.772460    3.073645   -0.476304
C     -2.511980    1.741039   -0.683241
C     -2.058951   -5.158138   -0.144593
C     -0.785593   -4.810798   -0.612686
C      4.097742    0.028305    0.992696
C      3.991172    2.101044   -0.209818
C      2.624626    0.373791    1.078609
C      2.991259    1.417231   -1.124644
C     -3.395712    2.577672    1.750670
C     -3.223055    3.516084    0.761216
C     -2.696596    0.836912    0.331742
C     -2.549926   -2.844560    0.013029
C     -1.295586   -2.525372   -0.450806
C     -3.267348   -1.620505    0.333683
C     -1.213963   -1.064081   -0.542713
C      0.910029    0.141806   -0.739588
Cl    -3.558064    5.203259    1.064993
N      4.853818    1.075826    0.339528
N     -2.883707   -4.151742    0.147121
N     -0.433624   -3.531442   -0.754689
N     -3.128506    1.278583    1.505512
N      2.129852    0.620861   -0.277587
N     -2.394868   -0.541204    0.049409
O     -4.461244   -1.551451    0.782657
O      0.542289    0.358498   -1.930551
O     -0.000899   -0.601435    0.029302
H     -2.634823    3.807910   -1.264711
H     -2.156978    1.444851   -1.679634
H     -2.267405   -6.202734   -0.057841
H     -0.086303   -5.608189   -0.859579
H      4.477379   -0.088346    2.015886
H      4.216084   -0.962699    0.469516
H      4.631471    2.814077   -0.763283
H      3.417720    2.575968    0.623829
H      2.115257   -0.560842    1.423789
H      2.439472    1.198086    1.769229
H      3.583864    0.693316   -1.734055
H      2.435826    2.137074   -1.765558
H     -3.755371    2.946861    2.713899
H     -1.256282   -0.782057   -1.634594
H      5.331388    0.642895   -0.489841
