62

C     -6.846384    1.979873    1.439583
C      9.057753    2.800219    1.635103
C     -6.797953    0.774202    0.534441
C     -6.720377    1.248233   -0.891562
C      3.334089   -0.253572    1.025762
C      4.385884   -0.816884    0.091637
C     -5.505660    2.070665   -1.155180
C      2.029013   -0.955758    0.614720
C      5.753727   -0.285004    0.325229
C     -4.238289    1.285093   -0.902775
C      0.852836   -0.479033    1.408249
C      5.881840    1.216120    0.218903
C     -2.921761   -0.695247   -1.571478
C     -1.974781   -0.333786   -0.748987
C      0.104045   -3.306028   -0.185559
C     -4.198405    0.094026   -1.798945
C     -0.380611   -1.229325    0.965281
C     -0.718187   -1.046329   -0.483260
C     -0.039405   -2.685325    1.141135
C     -0.481512   -2.325952   -1.186981
C      7.320767    1.520253    0.479125
O     -4.342297    0.425785   -3.144775
O      0.090541   -3.231164    2.198337
O      0.332434   -2.211998   -2.315291
O      8.234234    0.871393   -0.119456
O      7.691554    2.509985    1.379247
H     -7.125523    1.645878    2.475898
H     -5.864765    2.460420    1.442984
H     -7.660174    2.667806    1.085253
H      9.506811    1.961137    2.194485
H      9.649095    2.938335    0.720543
H      9.083308    3.680568    2.303268
H     -5.904877    0.150156    0.727798
H     -7.677786    0.103376    0.646345
H     -7.640066    1.857691   -1.109276
H     -6.796913    0.353465   -1.544507
H      3.234687    0.838456    0.930550
H      3.543676   -0.486110    2.095293
H      4.026519   -0.725268   -0.937822
H      4.441856   -1.927145    0.303440
H     -5.490692    2.949979   -0.478985
H     -5.484748    2.408867   -2.221505
H      2.222506   -2.035177    0.920860
H      1.939003   -0.934553   -0.456749
H      6.123631   -0.647504    1.306277
H      6.420073   -0.733234   -0.458760
H     -3.376787    1.933501   -1.158550
H     -4.151621    1.001968    0.157581
H      0.718022    0.632647    1.283733
H      0.971622   -0.630905    2.497233
H      5.597565    1.538125   -0.802260
H      5.247841    1.761428    0.915613
H     -2.788182   -1.625171   -2.151966
H     -2.159415    0.618068   -0.199015
H      1.118086   -3.627140   -0.456814
H     -0.512537   -4.254710   -0.148556
H     -5.018569   -0.645238   -1.571697
H     -1.248317   -0.980805    1.624084
H      0.117109   -0.344294   -0.875667
H     -1.430365   -2.765448   -1.528653
H     -3.447197    0.326060   -3.596116
H     -0.085968   -1.503671   -2.886841
