41

C      3.094854   -2.173936    2.377059
C     -1.981085   -2.036251   -1.853773
C     -2.477728    1.878252    0.671523
C     -3.970065    2.072546    0.371661
C      2.128996    0.982901   -1.108646
C      3.945897   -0.478892    0.263391
C     -3.718432   -0.329219    0.510037
C      1.677966    0.173117   -0.091032
C      3.452228    1.068914   -1.442093
C      4.399704    0.334063   -0.758391
C     -1.933241    1.047002   -0.466385
C      2.601556   -0.559091    0.593832
C     -2.688954   -0.231694   -0.585414
C      0.246893    0.142795    0.196637
Cl     3.966165    2.116381   -2.746168
N      5.783383    0.418214   -1.100397
N     -4.621488    0.800635    0.388052
N     -0.542985    0.834598   -0.465509
O     -0.196310   -0.674537    1.221828
O      2.183755   -1.375950    1.613770
O     -1.853680   -1.311882   -0.684324
H      3.550823   -2.973039    1.783245
H      3.934166   -1.543554    2.757495
H      2.575362   -2.577328    3.265856
H     -1.253281   -2.874610   -1.802912
H     -2.983256   -2.493071   -1.976756
H     -1.701075   -1.447782   -2.759242
H     -2.045497    2.884669    0.713602
H     -2.420525    1.429345    1.655174
H     -4.441853    2.766214    1.086855
H     -4.046248    2.564217   -0.641972
H      1.430664    1.592157   -1.690872
H      4.706611   -1.048201    0.788349
H     -4.365021   -1.233173    0.383906
H     -3.322848   -0.384416    1.522142
H     -2.173535    1.667599   -1.396053
H     -3.290976   -0.227485   -1.545656
H      6.099587    0.227884   -2.082948
H      6.450075    0.674873   -0.332514
H     -5.244942    0.713769   -0.440330
H     -0.955659   -0.416035    1.831312
