45

C     -4.548053   -1.227625    0.800546
C     -4.844496   -0.254431   -0.304820
C      5.854784   -0.159355   -0.937375
C      5.860755   -1.425377   -0.383677
C     -3.151302   -1.795870    0.514608
C     -3.704010    0.668093   -0.556130
C      4.714828    0.615695   -0.869303
C      4.700692   -1.860879    0.223079
C      1.728930    2.022310   -0.416584
C      0.663447    2.348861    0.603674
C     -0.801399   -0.935653    0.285794
C     -1.461886    1.465002   -0.058720
C     -2.174191   -0.706391    0.880426
C     -2.637749    0.656040    0.485588
C      3.558068    0.168540   -0.258608
C      2.300393    0.716214   -0.048427
C      3.551562   -1.101328    0.301242
C      0.135331    0.028273    1.029720
C      1.555960   -0.208813    0.624402
N      2.321071   -1.271765    0.816924
N     -0.307816    1.340965    0.774485
H     -4.556015   -0.751877    1.781749
H     -5.283326   -2.065221    0.773728
H     -4.987110   -0.873231   -1.238185
H     -5.797522    0.294824   -0.148285
H      6.764890    0.200284   -1.421290
H      6.761908   -2.041709   -0.435888
H     -3.070611   -2.081561   -0.543745
H     -3.042705   -2.693723    1.151332
H     -4.109984    1.721091   -0.596505
H     -3.243157    0.520541   -1.569753
H      4.724719    1.597390   -1.303867
H      4.718379   -2.857572    0.654330
H      1.367470    2.078512   -1.455097
H      2.523479    2.817206   -0.309190
H      1.190611    2.552634    1.568580
H      0.157304    3.290156    0.306252
H     -0.838529   -0.690373   -0.788345
H     -0.460394   -1.990895    0.452397
H     -1.283675    1.271170   -1.128910
H     -1.800578    2.536323   -0.001328
H     -2.047917   -0.748722    1.983579
H     -3.025591    1.190320    1.380709
H     -0.019425   -0.200853    2.106895
H      2.042862   -2.157220    1.305348
