34

C      2.875650   -2.104317   -0.584830
C      3.463003   -2.204715    0.644394
C      2.055709   -1.012272   -0.889146
C      3.252173   -1.230546    1.594387
C     -2.552161    1.458774   -0.975977
C     -2.743091   -1.593636    1.156623
C     -1.276678    1.946483   -0.318787
C     -4.005142   -1.975408    0.810971
C     -0.787935    0.020244    0.945362
C     -2.214237   -0.491477    0.613786
C      1.833481   -0.027917    0.049334
C      2.442965   -0.164989    1.276035
C     -2.937542    0.235310   -0.274242
C      0.978859    1.128268   -0.241646
C      1.284647    1.694320   -1.578726
Cl     2.188152    1.068724    2.506062
N     -0.420725    0.805697   -0.185021
O      2.439485    2.105781   -1.880918
O      0.320681    1.795131   -2.552249
S     -4.496801   -0.725500   -0.344315
H      3.053900   -2.888378   -1.328873
H      4.108584   -3.055773    0.897487
H      1.625455   -0.989443   -1.864509
H      3.719810   -1.299012    2.589264
H     -3.341362    2.239969   -0.968999
H     -2.288965    1.169250   -2.017810
H     -2.216662   -2.267835    1.908921
H     -0.837050    2.820592   -0.815604
H     -1.603797    2.265586    0.717593
H     -4.607184   -2.821206    1.130726
H     -0.096863   -0.820274    1.036115
H     -0.797514    0.614767    1.852202
H      1.167742    1.957487    0.488506
H      0.413414    2.346315   -3.396117
