44

C     -0.013487    3.510871   -1.629255
C     -5.740661   -1.370432    0.463952
C      3.828215   -1.762111    0.202332
C      3.527006   -1.289306   -1.200621
C      2.564742   -2.005842    0.957879
C     -1.306178    0.401840    1.270198
C     -1.904516   -0.160290   -0.940409
C     -2.545624    0.010272    1.712090
C     -3.159788   -0.562326   -0.530622
C      2.652882   -0.056518   -1.100864
C      1.663668   -0.766396    1.005550
C      0.884007    1.977578   -0.000875
C     -0.963003    0.323934   -0.059562
C     -3.468554   -0.471544    0.803951
C      0.361473    0.715545   -0.581757
C      1.352781   -0.412524   -0.409872
N      0.027538    3.123226   -0.243847
O      0.775744   -1.541573   -0.999201
O     -4.720044   -0.859584    1.307128
H      0.048356    4.629196   -1.659996
H     -1.016039    3.264343   -2.028394
H      0.760300    3.047490   -2.245592
H     -5.294042   -2.094077   -0.240067
H     -6.216456   -0.542837   -0.063415
H     -6.472939   -1.916421    1.115358
H      4.436873   -0.993085    0.686418
H      4.387481   -2.723264    0.183493
H      3.016831   -2.045467   -1.820549
H      4.472857   -0.970931   -1.691806
H      1.960321   -2.792329    0.456941
H      2.778570   -2.280198    2.010055
H     -0.554307    0.791787    1.953113
H     -1.703415   -0.250885   -2.019648
H     -2.792578    0.080059    2.765775
H     -3.909942   -0.944642   -1.200573
H      2.509695    0.455649   -2.053671
H      3.201952    0.633892   -0.397746
H      2.224785    0.004032    1.548448
H      0.756316   -1.136014    1.560999
H      0.975741    1.893746    1.104281
H      1.897114    2.172078   -0.428640
H      0.241062    0.864700   -1.693789
H      0.396208    3.896322    0.352714
H      0.079053   -1.847964   -0.346097
