42

C      1.426135   -2.330574    2.341845
C      3.218790    1.278000   -1.650176
C     -0.280079   -1.028729   -2.309088
C     -1.353750   -2.412284   -0.634615
C      1.074570   -0.908755    2.297078
C     -1.907391    2.042324    0.852473
C     -3.206961    2.005962    0.396476
C      1.784185   -0.551164   -0.982670
C      1.300179    1.696480   -0.043493
C      2.048610    0.743323   -0.867092
C      0.759807   -0.359961    1.153126
C     -1.030111    1.030562    0.465402
C      0.761068   -1.182876   -0.093507
C     -3.576917    0.964440   -0.424784
C     -1.410703   -0.006650   -0.356480
C     -0.552805   -1.112839   -0.812689
C      0.382866    1.068364    0.959357
N      0.464344    1.820856    2.191383
N     -2.697454    0.008911   -0.773412
O     -4.898705    0.955256   -0.869947
H      0.663943   -3.000491    1.906117
H      1.533102   -2.632164    3.403830
H      2.395891   -2.498714    1.834216
H      3.259581    0.807573   -2.660211
H      3.179665    2.377136   -1.731669
H      4.125540    0.993627   -1.090093
H      0.437217   -0.240619   -2.552576
H      0.162881   -2.028449   -2.584632
H     -1.243640   -0.955933   -2.855918
H     -0.681805   -3.293344   -0.638794
H     -1.973186   -2.345156    0.279912
H     -2.039135   -2.520718   -1.501149
H      1.067825   -0.302351    3.177728
H     -1.570478    2.851410    1.506889
H     -3.886151    2.792251    0.698115
H      2.310885   -1.135438   -1.718080
H      2.053327    2.356323    0.478649
H      0.696824    2.412035   -0.663502
H      1.083083   -2.217099    0.070823
H     -0.155840    1.436598    2.935262
H      1.467558    1.838536    2.480969
H     -5.192768    1.584342   -1.615074
