35

C     -4.693530    1.546746   -0.354292
C     -2.336679    0.663863   -1.333657
C     -1.899387   -0.729241    0.526826
C     -1.041432    0.423995   -1.778517
C     -0.604426   -0.963663    0.073794
C      4.080934   -1.831811    0.236302
C      3.580801    0.323557   -0.535311
C      5.281562   -1.327746    0.754328
C      4.771518    0.796549   -0.015238
C     -4.118716    0.315167    0.318453
C     -2.747753    0.077299   -0.176972
C     -0.162143   -0.378930   -1.099661
C      3.211933   -0.997356   -0.420456
C      1.190533   -0.618477   -1.581054
N     -4.039074    0.586058    1.742413
N      5.612295   -0.026880    0.623968
N      2.117314   -1.445183   -0.895491
O      1.550843   -0.068298   -2.650200
Cl     0.691323    0.000000    0.000000
H     -5.641478    1.804312    0.166854
H     -3.987843    2.394464   -0.223078
H     -4.925240    1.382149   -1.419251
H     -2.953141    1.314814   -1.944488
H     -2.243675   -1.190099    1.449005
H     -0.713661    0.893354   -2.703318
H      0.075959   -1.593935    0.612840
H      3.891723   -2.893299    0.385436
H      2.899264    1.007260   -1.057279
H      5.962680   -1.992650    1.271655
H      5.023574    1.834286   -0.125469
H     -4.765420   -0.546048    0.141995
H     -4.098770   -0.325856    2.273832
H     -4.810441    1.245703    2.031566
H      6.531879    0.319898    1.029968
H     -0.691323    0.000000    0.000000
