37

C     -3.805779    0.739878   -0.160906
C      2.232600    2.871061    0.405488
C      3.245386    1.977708    0.109496
C      0.913492    2.407917    0.531449
C     -2.084287   -1.422266    0.930106
C      3.740251   -0.590942   -0.377049
C     -2.693264   -1.335596   -0.451106
C      2.828029   -1.780953   -0.189333
C      0.131809   -1.638990   -0.219431
C     -1.494771    0.725858   -0.804272
C      2.960569    0.629854   -0.062460
C     -0.664693   -0.952547    0.835485
C      0.615312    1.077169    0.364357
C     -0.737265    0.543207    0.486628
C      1.658142    0.231289    0.071353
N     -2.740008    0.033865   -0.851460
N      1.507963   -1.163511   -0.126896
H     -4.320674    0.094432    0.589419
H     -4.568373    0.991821   -0.926311
H     -3.358620    1.647973    0.310763
H      2.457953    3.933196    0.540793
H      4.275813    2.279953    0.001637
H      0.144862    3.124425    0.762173
H     -2.634272   -0.661789    1.557163
H     -2.215245   -2.386490    1.415893
H      4.645580   -0.686775    0.279101
H      4.067681   -0.538732   -1.446245
H     -2.174716   -1.973487   -1.167311
H     -3.750817   -1.696305   -0.372648
H      2.897540   -2.500998   -1.026004
H      3.064033   -2.229740    0.798210
H     -0.196400   -1.353912   -1.262451
H      0.117476   -2.739548   -0.147267
H     -1.729825    1.829244   -0.867542
H     -0.880495    0.517027   -1.703274
H     -0.124729   -1.027814    1.794691
H     -1.330257    1.024518    1.289426
