29

C      3.360126   -0.120835    0.224720
C      2.071704    0.706278    0.263791
C     -0.301036    1.934043    0.307103
C     -1.446743    2.699166    0.291056
C      0.743290   -1.231943    0.952528
C     -1.889687   -1.323808   -0.982732
C     -1.599475    0.056129   -0.514629
C     -0.391691    0.623422   -0.095443
C     -0.284279   -2.219461    0.696312
C     -2.701472    0.876248   -0.505393
C      0.877203   -0.126485   -0.047852
N     -2.609359    2.156950   -0.111188
O     -0.282498   -3.162820    1.559144
O     -3.916021    0.338876   -0.917124
O      1.070324   -0.710337   -1.325917
O     -1.242192   -2.330749   -0.281191
H      3.463314   -0.654565    1.181111
H      3.292905   -0.780747   -0.658556
H      4.182383    0.616752    0.064032
H      1.991282    1.101533    1.317175
H      2.166020    1.582147   -0.398384
H      0.621646    2.386583    0.631603
H     -1.433261    3.737932    0.597920
H      0.530103   -0.750783    1.948317
H      1.732816   -1.729782    1.077174
H     -1.662102   -1.451062   -2.061197
H     -2.998504   -1.480968   -0.840825
H     -4.716688    0.907608   -1.157546
H      1.371892   -1.649322   -1.214010
