39

C      5.034834    0.054667   -0.547946
C      3.593975   -0.308230   -0.203795
C      2.970915    0.943222    0.350945
C      1.536439    0.780086    0.767518
C      0.654204    0.355977   -0.394632
C     -1.349870    1.370893    0.322754
C     -0.458497   -2.164330    0.402364
C     -1.266597   -1.025459   -0.173029
C     -2.845320    1.366419    0.297541
C     -2.686375   -1.038431    0.396618
C     -3.393942    0.097340   -0.313413
N     -0.692417    0.208638    0.001406
O     -1.128156   -3.391454    0.188207
O     -3.417518    1.584416    1.539093
O     -2.572228   -0.706750    1.745595
O     -3.011006    0.036701   -1.657026
H      5.094177    1.137712   -0.800396
H      5.650412   -0.116271    0.351931
H      5.350150   -0.536314   -1.427708
H      3.082714   -0.629014   -1.134863
H      3.598282   -1.125853    0.541814
H      3.541912    1.333019    1.220482
H      3.029972    1.751161   -0.419078
H      1.509590    0.009617    1.593464
H      1.141922    1.705758    1.228150
H      0.793095    1.201093   -1.150135
H      1.084850   -0.514391   -0.926479
H     -0.982604    2.226098   -0.317041
H     -1.046280    1.698944    1.363601
H      0.473249   -2.266732   -0.194789
H     -0.236582   -2.010882    1.460462
H     -1.391950   -1.250080   -1.263731
H     -3.206247    2.195660   -0.370925
H     -3.219523   -1.963678    0.216644
H     -4.491042    0.041588   -0.193485
H     -1.895218   -3.499016    0.788436
H     -2.934602    2.337426    1.968581
H     -3.476527   -0.672486    2.149049
H     -2.438191    0.782939   -1.915054
