27

C     -2.988840   -1.161296    1.107182
C      3.052767   -2.530968    0.126078
C      0.857910    1.639085    0.395183
C      0.116936    2.691698    0.168218
C     -1.688539   -0.508576    0.670872
C      2.539651   -1.252659   -0.432267
C      0.870201    0.549806   -0.588614
C     -0.677501    2.747963   -1.059945
C     -1.586984   -0.028330   -0.659615
C     -0.371015    0.402083   -1.379999
O      3.244371   -0.675183   -1.309149
O     -1.408806    3.721102   -1.347283
O     -1.979442    0.923635    0.401988
O      1.352722   -0.668190   -0.052355
O     -0.642985    1.682711   -1.979810
H     -2.952792   -2.252694    1.085881
H     -3.321591   -0.760707    2.101861
H     -3.805440   -0.843472    0.395165
H      2.267206   -3.191958    0.498598
H      3.853966   -2.324146    0.892720
H      3.602373   -3.068088   -0.695552
H      1.443829    1.578029    1.285326
H      0.058039    3.543442    0.855583
H     -0.835472   -0.664709    1.333147
H      1.659315    0.871978   -1.341999
H     -2.486864   -0.121185   -1.332792
H     -0.173015   -0.299371   -2.215989
