30

C     -3.179742    0.982792    2.468224
C     -0.626202    0.589633   -1.563620
C     -2.845107    1.533409    1.452737
C      2.675677   -2.770367   -0.704189
C      1.319369   -2.922156   -0.732793
C      3.197957   -1.608825   -0.171388
C      0.511964   -1.888836   -0.221392
C      2.412696   -0.617875    0.321648
C     -2.424500    2.222669    0.162933
C      0.047130    0.275438    0.766511
C     -0.206379    1.302881   -0.261980
C      1.061008   -0.717156    0.314667
N     -1.034223    2.408894    0.019997
Cl     0.688746    0.000000    0.000000
H     -3.445912    0.543737    3.259459
H      0.266576    0.030082   -1.893589
H     -0.897627    1.319258   -2.327853
H     -1.436952   -0.149750   -1.360825
H      3.317355   -3.575615   -1.116277
H      0.812957   -3.827393   -1.094066
H      4.289345   -1.529366   -0.165513
H     -0.537301   -2.071135   -0.301486
H      2.820317    0.304354    0.759097
H     -2.935243    3.199790    0.157783
H     -2.869252    1.680667   -0.702206
H      0.414946    0.744197    1.732111
H     -0.878958   -0.266237    1.028715
H      0.804173    1.756550   -0.579769
H     -0.634074    3.050361    0.753064
H     -0.688746    0.000000    0.000000
