31

C      1.641755   -0.741258   -1.083080
C      2.090792    0.323483    0.962626
C      2.989476   -0.715432   -1.337779
C      3.439670    0.353302    0.715715
C     -0.782042   -1.586017    0.636510
C     -2.033851   -1.871100   -0.106159
C     -2.565221    0.479788   -0.136824
C     -0.791938    2.118858   -0.228389
C      1.159925   -0.216511    0.085197
C     -1.099603    0.644292   -0.466269
C      3.910084   -0.176108   -0.459362
C     -0.254692   -0.185119    0.470605
F      5.245866   -0.172179   -0.755542
N     -3.008512   -0.861810   -0.143239
O     -1.073187    2.375218    1.116053
H      0.965320   -1.165969   -1.785905
H      1.771598    0.760299    1.916478
H      3.404836   -1.127033   -2.262640
H      4.128042    0.788957    1.437861
H     -0.952353   -1.853609    1.715552
H     -0.011318   -2.302107    0.280950
H     -2.494935   -2.793193    0.356969
H     -1.791816   -2.190337   -1.159968
H     -2.837505    1.036498    0.799811
H     -3.123369    1.030963   -0.948966
H     -1.505698    2.747554   -0.813150
H      0.261638    2.365997   -0.422878
H     -0.973860    0.365775   -1.528056
H     -0.330622    0.298455    1.463184
H     -3.837272   -0.978897    0.444218
H     -1.541207    3.247241    1.236477
