39

C     -2.060398    2.572656    0.799770
C      3.810888   -0.412763    1.029403
C      3.273724   -0.565820   -1.321429
C     -2.949854   -1.575282    0.396581
C     -1.205908   -2.276711    1.875148
C     -1.740657    0.102966   -1.866465
C     -2.283200    1.584372   -0.050435
C      1.173709    1.478197   -0.156907
C     -0.027767    1.579483   -1.000873
C      0.503880   -0.859256    0.024697
C      2.913495   -0.276250    0.083455
C     -1.743810   -1.320074    0.819009
C      1.540691    0.167448    0.421989
C     -0.826340   -0.274596    0.441615
C     -1.208454    0.719574   -0.597934
H     -2.852843    3.192844    1.189016
H     -1.064977    2.790426    1.133914
H      4.807226   -0.735555    0.778078
H      3.557172   -0.203872    2.056449
H      2.380764   -0.799812   -1.940769
H      3.820059    0.320158   -1.716689
H      3.982229   -1.427711   -1.308240
H     -3.502780   -2.412250    0.785845
H     -3.451139   -0.975457   -0.344218
H     -0.491168   -1.788303    2.540738
H     -0.666803   -3.119717    1.371951
H     -2.034037   -2.658848    2.479614
H     -1.109495    0.442580   -2.713432
H     -2.761627    0.443865   -2.117079
H     -1.612711   -0.997234   -1.844542
H     -3.307847    1.411094   -0.351329
H      2.053079    1.776753   -0.816105
H      1.218811    2.277305    0.646274
H     -0.372067    2.642957   -0.987461
H      0.227987    1.395514   -2.078107
H      0.464821   -0.961633   -1.085712
H      0.690775   -1.847019    0.487875
H      1.477714    0.268997    1.551256
H     -0.623140    0.320973    1.385048
