44

C     -3.288068   -2.983899   -0.452961
C      1.108900    4.178134   -1.156767
C      2.948897   -2.242851    0.840627
C      3.693463    0.362953    2.203278
C      4.297834   -0.087026   -0.785066
C     -2.299631   -1.922741   -0.937339
C      0.277631   -0.546394    0.324040
C     -3.351161   -0.424580    0.633041
C     -2.216142    2.091440   -0.836293
C     -1.062599    1.245384   -0.424603
C     -0.965158   -0.050598    0.018354
C      1.413382    0.249712    0.187023
C     -3.917714    0.267370   -0.577555
C      0.091122    2.026287   -0.554532
C     -2.010288   -1.027164    0.225151
N      1.291532    1.516726   -0.249057
O     -5.085246   -0.055440   -0.922405
O     -1.632669   -1.860640    1.300854
O      0.005855    3.337305   -1.001146
O     -3.225299    1.220693   -1.309903
Si     3.088422   -0.394801    0.591120
H     -4.332714   -2.692401   -0.715429
H     -3.027737   -3.983840   -0.850276
H     -3.275922   -3.059091    0.660148
H      1.357523    4.710728   -0.201350
H      0.907852    4.977358   -1.901747
H      2.011154    3.630352   -1.525779
H      3.938630   -2.609056    1.179436
H      2.623410   -2.715153   -0.116710
H      2.224920   -2.454860    1.640568
H      4.467115    1.128045    1.992401
H      4.132937   -0.432679    2.852138
H      2.802876    0.782152    2.727565
H      5.093314    0.612076   -0.453128
H      3.809989    0.314080   -1.697058
H      4.813024   -1.019222   -1.100176
H     -1.408023   -2.390489   -1.384540
H     -2.811217   -1.360802   -1.736747
H      0.450540   -1.557207    0.680498
H     -3.200982    0.317578    1.419928
H     -4.050760   -1.179987    0.990247
H     -2.585831    2.626446    0.063098
H     -1.928871    2.787111   -1.647653
H     -1.174292   -1.331003    2.008704
