83

C     -0.707303    3.291037   -1.653575
C      1.290921    4.083179   -0.723767
C      0.682024    1.767234   -0.232764
C      5.947914   -1.595463    1.206958
C      4.594774   -1.065954    3.057320
C     -4.883749   -3.684234    1.503385
C     -5.558758   -1.574038    0.749068
C     -0.918319    4.547491   -2.248917
C      1.094405    5.327719   -1.305926
C      7.078803   -1.275386    1.906095
C      5.738979   -0.734581    3.786706
C     -6.157499   -4.179694    1.392759
C     -6.879169   -2.047520    0.622100
C     -0.091323    0.723017   -0.296662
C      2.840924   -1.381918   -1.761375
C      3.664298    0.768989   -1.319293
C     -3.154701    1.162340    0.862520
C     -3.588688    0.396955   -1.332776
C      3.810670   -0.108375   -3.549447
C     -4.236349    2.612521   -0.746451
C      0.169456   -3.073466    1.559058
C      0.387036    3.032151   -0.887293
C      4.676678   -1.502917    1.753077
C     -4.544527   -2.355119    1.181318
C      3.063969   -0.363185   -0.842367
C     -3.065520    0.134010   -0.049562
C     -0.022693    5.555780   -2.074599
C      6.987020   -0.836452    3.218328
C     -7.167286   -3.347006    0.945228
C      3.206978   -1.257148   -3.089021
C      4.035566    0.910713   -2.637341
C     -3.726007    2.359768    0.508464
C     -4.157645    1.598160   -1.674679
C      0.046707   -0.585994    0.274551
C      1.312593   -2.346886    1.357885
C     -1.044194   -2.596825    1.136233
C      2.662374   -0.605783    0.573668
C     -2.528751   -1.172534    0.198726
C      1.272940   -1.100148    0.715105
C     -1.096760   -1.349341    0.493766
C      3.495162   -1.862093    0.954193
C     -3.175981   -1.914598    1.358134
O     -0.182740    6.822066   -2.642334
O      8.140769   -0.506116    3.943171
O     -8.471507   -3.785661    0.811208
O      2.983562   -2.278377   -4.011337
O      4.644700    2.068390   -3.105004
O     -3.827869    3.423772    1.422205
O     -4.670480    1.847230   -2.941184
O      2.622510   -2.642794    1.705246
O     -2.349625   -3.127440    1.213497
H     -1.444165    2.524646   -1.823588
H      2.164329    3.901491   -0.121802
H      1.568918    1.673371    0.375688
H      6.049964   -1.933487    0.189046
H      3.603783   -0.991159    3.489765
H     -4.076629   -4.332927    1.856513
H     -5.413606   -0.541725    0.496570
H     -1.804473    4.714979   -2.853883
H      1.811048    6.132701   -1.165013
H      8.066041   -1.354914    1.459170
H      5.617183   -0.390448    4.825645
H     -6.435837   -5.189879    1.633189
H     -7.656499   -1.407318    0.278191
H     -0.977579    0.875785   -0.934772
H      2.370242   -2.297367   -1.438796
H      3.849155    1.580804   -0.616975
H     -2.765775    0.999286    1.852440
H     -3.554124   -0.363538   -2.104522
H      4.109868    0.028180   -4.569848
H     -4.686677    3.571277   -1.007662
H      0.237306   -4.038946    2.061174
H      2.950897    0.208125    1.233624
H     -2.719566   -1.864078   -0.689232
H      3.752686   -2.444678    0.049419
H     -2.899688   -1.510453    2.337298
H     -0.674831    7.551310   -2.143929
H      8.560473   -1.282916    4.464957
H     -8.832821   -4.198407   -0.049420
H      3.684373   -2.999986   -4.172789
H      5.654093    2.164822   -3.096254
H     -4.697148    3.425571    1.974661
H     -5.655226    1.614401   -3.073164
