70

C      2.796633   -0.130331   -0.649751
C     -7.824122    0.671377   -0.232197
C     -4.212006    1.056967   -5.619443
C     -7.373107   -0.943675    3.610207
C     -6.141898   -1.363821    4.106746
C      0.445537   -1.829211    0.034687
C     -7.473440   -0.421043    2.339697
C     -5.047191   -1.233390    3.279176
C     -1.312117    0.547092   -3.462773
C      7.236947   -0.152908    2.143409
C     -0.960164    0.143667   -2.168106
C      8.617406   -0.183500    2.048274
C      1.762647   -1.756597    0.822012
C      2.804098    0.221143    1.754881
C     -0.445216   -0.760955    0.592102
C      4.222934   -0.001889    2.140381
C     -3.573120    0.210687   -2.933540
C      7.117015    0.739758   -0.035302
C     10.716188    0.732538   -0.754792
C     -2.632363    0.585534   -3.862336
C      6.459927    0.308051    1.106031
C     -3.265651   -0.186980   -1.667378
C     -6.359838   -0.292291    1.508086
C     -1.923717   -0.225782   -1.262075
C      9.279303    0.245634    0.911183
C      8.512600    0.709292   -0.133163
C     -5.160443   -0.717493    2.031514
C     -4.298891   -0.592929   -0.711956
C     -5.402189    0.411761   -0.707809
N      2.315179   -0.466052    0.628532
N     -6.508462    0.252621    0.201251
O     -5.441591    1.418406   -1.459753
O     -2.897229    0.990661   -5.138060
O      5.097157    0.365729    1.130944
O     -1.686048   -0.624515    0.009998
O     10.629429    0.308074    0.591520
O      9.399579    1.073229   -1.135870
S     -3.666186   -0.590777    1.015821
H      2.295283    0.828173   -0.977367
H      3.895074   -0.060408   -0.778512
H      2.417920   -0.886665   -1.390371
H     -8.147154    1.582605    0.335637
H     -7.859139    0.942757   -1.285626
H     -8.580081   -0.135191   -0.054829
H     -4.295796    1.674190   -6.545232
H     -4.870186    1.413834   -4.817439
H     -4.527195   -0.004832   -5.839073
H     -8.243231   -1.042165    4.251313
H     -6.081016   -1.775875    5.114866
H     -0.065899   -2.806907    0.277280
H      0.676975   -1.799481   -1.020538
H     -8.439383   -0.115133    2.010818
H     -4.102322   -1.577528    3.712660
H     -0.527381    0.828649   -4.146967
H      6.697472   -0.487131    3.031638
H      0.091269    0.165921   -1.934525
H      9.199697   -0.546695    2.869630
H      2.412925   -2.590155    0.520991
H      1.471842   -1.925683    1.873512
H      2.137069   -0.048692    2.625797
H      2.623207    1.318973    1.593474
H     -0.482855   -0.935582    1.694821
H      0.048336    0.260462    0.518334
H      4.371180   -1.062194    2.434843
H      4.401561    0.587845    3.078833
H     -4.611141    0.225824   -3.239687
H      6.536645    1.105861   -0.863286
H     11.135453   -0.022107   -1.435357
H     11.299843    1.676557   -0.745077
H     -4.686560   -1.613010   -0.942712
