28

C      3.314912    0.084462    0.027135
C      2.490362    0.524657   -1.175269
C     -3.484259   -1.617102    0.090182
C     -3.276806   -0.518287   -0.696036
C     -2.463693   -2.100673    0.880494
C     -2.016221    0.096808   -0.678805
C     -1.236489   -1.480955    0.880829
C      1.133222   -0.091831   -1.125265
C     -0.980411   -0.358753    0.095653
C      0.225032    1.756854    0.242666
C      0.359202    0.294502    0.119994
O      0.650507    2.327385    1.279507
O     -0.345833    2.566947   -0.719056
O      1.025934   -0.174952    1.266475
H      3.141515    0.752408    0.874409
H      4.395518    0.085970   -0.239122
H      3.013456   -0.951176    0.311863
H      2.993983    0.155719   -2.092973
H      2.471009    1.631211   -1.260829
H     -4.473758   -2.076865    0.058414
H     -4.060755   -0.119490   -1.324743
H     -2.634851   -2.976317    1.504614
H     -1.875429    0.956204   -1.306850
H     -0.426281   -1.866550    1.509580
H      1.212022   -1.173535   -1.241214
H      0.549468    0.288308   -1.991702
H     -0.733396    3.480345   -0.510353
H      1.032038    0.504705    1.991843
