90

C      8.397461    1.249712   -1.590462
C      8.032294    1.174072    0.932191
C      1.194991   -4.141550    1.640076
C      1.448219   -2.060257    3.092322
C     -2.630063    1.954448    3.351070
C     -5.885852   -2.216339   -1.018799
C     -3.819328   -2.468155    0.286067
C      4.206255    1.243662    1.657156
C      6.069067   -0.900212    0.521570
C      6.809344   -0.269056   -0.567487
C      0.111156   -2.059577    1.062474
C     -0.269950   -0.606763    1.218368
C     -3.504118    1.924692    1.057872
C      3.138265    1.374853   -1.706887
C      4.602233   -0.920200    0.477069
C      4.103506    1.064492   -0.833434
C     -4.480296    1.936395   -0.036356
C     -3.982787    1.163953   -3.573515
C     -4.577243   -1.128469   -3.120695
C      7.709687    0.681815   -0.421353
C      0.886194   -2.711465    1.895605
C     -3.750828    1.972218    2.344431
C     -5.179651    0.285765   -3.249317
C      1.770103    1.030030   -1.413072
C      0.143812    0.083557   -0.012874
C     -2.962234    0.939472   -2.747418
C     -3.756309   -1.217372   -1.878125
C     -0.530050    1.054073   -2.108601
C      0.781596    1.371065   -2.361034
C     -1.604661    1.332148   -3.045753
C      1.463316    0.396366   -0.256945
C     -0.857580    0.411471   -0.936414
C     -5.577534    0.741963   -1.898293
C     -5.083612    2.016663    2.888721
C     -4.567845   -1.557138   -0.677936
C      3.861052    0.379016    0.434022
C     -4.553454    0.667084   -0.823468
C     -3.277032    0.220883   -1.489791
O      1.153619    2.008470   -3.507110
O     -1.373826    1.918767   -4.132014
O     -6.675616    1.150356   -1.692632
O     -5.254660    2.071915    4.172564
O     -6.226543    2.003833    2.142204
O      2.465121    0.091219    0.621367
O     -2.175095    0.089704   -0.661225
O     -4.874107   -0.393716    0.017032
H      7.918872    0.963094   -2.552347
H      9.486626    1.038906   -1.588870
H      8.314642    2.355575   -1.525067
H      8.304685    0.348377    1.629359
H      8.857040    1.917261    0.932641
H      7.163757    1.692958    1.385444
H      1.983154   -4.227372    0.853011
H      0.279678   -4.661797    1.236912
H      1.481667   -4.701723    2.541022
H      0.686902   -2.115249    3.908876
H      1.708466   -1.004136    2.983575
H      2.375817   -2.623683    3.391293
H     -1.697381    1.585556    2.897746
H     -2.504846    2.982511    3.749121
H     -2.952332    1.315296    4.198697
H     -6.549686   -1.588795   -1.634528
H     -6.406327   -2.391022   -0.051250
H     -5.721134   -3.226805   -1.452648
H     -3.824103   -2.043900    1.296184
H     -2.774120   -2.636532   -0.061042
H     -4.303896   -3.460226    0.248315
H      4.680351    0.612337    2.411009
H      3.282682    1.669647    2.088289
H      4.816205    2.118056    1.348748
H      6.402864   -1.984138    0.625878
H      6.433065   -0.444085    1.476974
H      6.605944   -0.607582   -1.600327
H     -0.283421   -2.606595    0.199702
H      0.096287   -0.171749    2.143358
H     -1.395263   -0.640314    1.304143
H     -2.413960    1.885606    0.829697
H      3.359626    1.882068   -2.635858
H      4.238268   -1.551077   -0.379465
H      4.258291   -1.523690    1.379337
H      5.090138    1.371953   -1.142440
H     -5.484556    2.274439    0.198919
H     -4.097892    2.781191   -0.735947
H     -3.976134    1.865097   -4.363732
H     -5.338304   -1.899987   -3.241021
H     -3.871327   -1.238081   -3.995512
H     -5.951706    0.342121   -4.009578
H     -2.851169   -1.866237   -1.981167
H      0.721004    2.342408   -4.282957
H     -7.065491    2.516456    2.393621
