74

C      3.700395    1.965089   -1.378038
C     -0.527120    3.216543   -1.663190
C      0.510970   -0.412958    1.176196
C      0.051455    2.389498    1.778396
C      2.064544    0.629590   -2.551524
C      3.822881   -1.963619   -0.634677
C      2.633597   -1.239213   -0.213772
C      0.605748    0.532601   -2.074684
C      5.510241   -3.106948    0.737130
C     -0.853385    2.753585    0.682911
C      1.367718    1.825901    1.387698
C      6.713725   -2.811962    1.524967
C     -4.065542   -0.682061    2.672112
C     -2.061755    1.506515   -1.108361
C      2.839278    0.982622   -1.321652
C      5.035392   -1.964391    0.209827
C      2.570272    0.223964   -0.067091
C     -3.941811   -1.303011    1.287941
C      0.483185    1.265551   -0.768545
C     -4.952567   -0.729423    0.354660
C     -4.842291   -1.437735   -0.967208
C     -3.400570   -1.667714   -1.263176
C      5.927527   -0.908315    0.600396
C     -2.485175   -0.734028   -0.428165
C     -0.766589    2.039012   -0.617262
C      1.132387    0.647527    0.399859
O     -5.406240   -0.793198    3.045715
O     -6.226160   -1.040176    0.880301
O     -5.479539   -0.655311   -1.931065
O     -3.067165   -2.958147   -0.853797
O      5.848241    0.323319    0.312348
O      6.939160   -1.442125    1.370744
O     -2.754100    0.538698   -0.587498
O     -2.641046   -1.218896    0.874810
H      3.882866    2.546624   -2.296077
H      4.310218    2.322854   -0.542326
H     -1.094164    4.087151   -1.316803
H      0.524702    3.458181   -1.721559
H     -0.906460    2.908173   -2.649068
H     -0.407332   -0.098691    1.746781
H      0.316093   -1.379563    0.734887
H      1.217271   -0.642495    2.048187
H      0.286256    3.320464    2.381652
H     -0.466527    1.751649    2.558364
H      2.401935   -0.278696   -3.034894
H      2.086069    1.446629   -3.297892
H      3.524412   -3.033847   -0.812248
H      4.129894   -1.674618   -1.713434
H      1.776863   -1.651442   -0.850552
H      2.344239   -1.706841    0.804861
H     -0.024892    1.114806   -2.821198
H      0.246514   -0.485001   -2.110360
H      5.083501   -4.119863    0.614696
H     -1.909024    2.640649    1.071110
H     -0.781148    3.872132    0.529926
H      1.901903    1.476676    2.277232
H      1.918662    2.582380    0.803971
H      6.489277   -3.102546    2.575247
H      7.581260   -3.379427    1.120725
H     -3.720374    0.357162    2.614801
H     -3.452448   -1.300116    3.347862
H     -2.811254    2.404066   -1.178109
H     -1.912836    1.388275   -2.260874
H      3.240681    0.541070    0.743019
H     -4.204725   -2.388947    1.430913
H      1.246660    2.160674   -0.951966
H     -4.920955    0.367993    0.270253
H     -5.434490   -2.379894   -0.898277
H     -3.200741   -1.589492   -2.327778
H     -1.479878   -1.023709   -0.765781
H     -5.853624    0.099419    2.944189
H     -6.910725   -1.070065    0.150107
H     -5.496741    0.286216   -1.630989
H     -3.806597   -3.598776   -0.943489
