50

C     -3.517545   -1.668926    2.227969
C      0.914266   -3.427904   -0.754801
C      5.397768    0.286726   -1.216150
C     -4.569620   -0.796156    2.030542
C     -0.137530   -2.543038   -0.907178
C      1.970972   -3.153993    0.088032
C     -2.402087   -1.570218    1.419089
C      5.746985    1.578625   -0.560541
C      4.222090   -0.429377   -0.642865
C     -5.508972    1.224517    0.620095
C     -3.603978    1.370777   -0.739446
C      0.879767   -1.070695    0.621090
C     -5.588727    2.739218   -1.373014
C     -5.129083    1.407623   -0.828831
C     -4.548361    0.175602    1.050798
C     -0.178247   -1.344356   -0.222435
C      1.937327   -1.958874    0.775215
C     -3.425444    0.258180    0.253198
C     -2.362247   -0.602377    0.431397
C      6.963032    2.139570   -1.305825
F      7.991291    1.221302   -1.195350
F      7.399617    3.305727   -0.727427
F      6.663620    2.278489   -2.630987
O     -6.957484    2.836871   -1.279601
O      5.597509   -1.769173    1.221522
O      4.644467    0.358178    1.910452
O     -1.251142   -0.478538   -0.399696
O      3.010580   -1.691997    1.624529
S      4.410228   -0.863982    1.059008
H     -3.505637   -2.432643    2.979733
H      0.952361   -4.369773   -1.288908
H      5.155933    0.514401   -2.286876
H      6.310709   -0.353892   -1.248493
H     -5.427829   -0.918531    2.699044
H     -0.962488   -2.768934   -1.572316
H      2.795931   -3.845689    0.208928
H     -1.551224   -2.229789    1.532743
H      4.958101    2.330237   -0.594022
H      6.081927    1.476069    0.493904
H      4.073823   -1.351615   -1.256444
H      3.328690    0.219624   -0.791760
H     -5.363886    2.169623    1.207580
H     -6.558020    0.852434    0.725064
H     -3.225700    1.120630   -1.728416
H     -3.285759    2.334069   -0.330701
H      0.873458   -0.135797    1.171538
H     -5.325241    2.752812   -2.453407
H     -5.057987    3.547073   -0.863331
H     -5.534486    0.561460   -1.392466
H     -7.301731    2.716430   -0.358031
