82

C      0.946463   -3.961113   -0.857782
C     -1.026615    4.080594    0.540972
C     -0.210271   -4.362449    0.012912
C      0.033760    3.932685   -0.517896
C      2.156025   -3.519130   -0.046693
C     -2.328760    3.582227   -0.028657
C     -1.417305   -3.532212   -0.374522
C      1.383806    3.796410    0.142616
C      6.091821   -2.076132    0.204364
C     -6.143073    1.897034    0.094536
C      2.326398   -2.026482   -0.091012
C     -2.383253    2.065237   -0.097714
C      4.680270   -2.323013    0.737165
C     -4.790068    2.264106   -0.520679
C     -1.799597   -2.691799    0.810616
C      2.250421    2.964912   -0.797055
C     -3.943685   -2.445345   -0.475522
C      4.435597    2.527573    0.233349
C      6.085233   -0.699557   -0.407838
C     -6.224421    0.383468    0.142732
C     -5.234749   -1.645296   -0.435159
C      5.483999    1.549824   -0.261672
C      3.742107   -1.574322   -0.177028
C     -3.740178    1.645587    0.396080
C     -3.045001   -1.886983    0.600049
C      3.050498    1.975342   -0.013314
C      3.834890   -0.107849    0.202754
C     -3.926524    0.165256    0.468050
N      5.228980    0.227415    0.286782
N     -5.014591   -0.230111   -0.417824
O     -2.769286   -0.556754    0.241402
O      3.104068    0.711614   -0.626710
H      0.651962   -3.151184   -1.574031
H      1.183077   -4.840372   -1.504924
H     -1.149198    5.166956    0.727940
H     -0.757560    3.616709    1.503511
H      0.009432   -4.279607    1.095714
H     -0.514526   -5.432276   -0.144028
H     -0.175706    2.967335   -1.043477
H      0.071008    4.780486   -1.219132
H      1.915437   -3.777331    1.022183
H      3.016264   -4.077666   -0.436403
H     -3.153235    3.993026    0.608532
H     -2.448370    4.051149   -1.027449
H     -1.184127   -2.831659   -1.208203
H     -2.275849   -4.136616   -0.694962
H      1.322623    3.338562    1.156333
H      1.821337    4.812193    0.308110
H      6.854712   -2.171598    0.983766
H      6.239170   -2.797149   -0.636430
H     -6.096179    2.279011    1.144049
H     -6.982642    2.348308   -0.464661
H      1.776676   -1.528749    0.739518
H      1.808134   -1.681092   -1.033534
H     -2.304537    1.804495   -1.183791
H     -1.563921    1.583156    0.454912
H      4.499552   -3.395249    0.786611
H      4.657615   -1.819593    1.739467
H     -4.729168    1.765274   -1.516878
H     -4.660497    3.345049   -0.613306
H     -1.983714   -3.376669    1.674448
H     -0.940243   -2.037523    1.093765
H      1.635407    2.450999   -1.569784
H      2.922047    3.672094   -1.309317
H     -4.200659   -3.487335   -0.241379
H     -3.494865   -2.413194   -1.480391
H      4.586909    3.472486   -0.326380
H      4.608210    2.764149    1.303144
H      5.880487   -0.729869   -1.509297
H      7.125455   -0.296764   -0.324359
H     -7.111493   -0.012651   -0.386169
H     -6.258208    0.030630    1.205424
H     -5.906148   -1.877212   -1.277194
H     -5.734763   -1.912443    0.529677
H      6.484982    1.870277    0.081718
H      5.421562    1.530329   -1.361169
H      4.117276   -1.719255   -1.213344
H     -3.880725    2.130313    1.395544
H     -3.668241   -1.817047    1.526034
H      2.585774    1.807853    0.985079
H      3.422773   -0.025230    1.247647
H     -4.280266   -0.086245    1.502089
