71

C      7.992162   -0.721915   -0.147047
C      2.927786    0.654787   -1.577362
C      1.940559    2.634514   -0.584721
C      7.948075    0.775451   -0.328166
C      6.909746    1.417155    0.569954
C      5.522165    0.852314    0.236069
C      4.459360    1.448800    1.094370
C     -5.790133    0.899398   -0.061838
C     -6.090762   -0.545830   -0.425436
C      0.243997    0.724567    1.023754
C     -0.937949    0.041923    1.244036
C      3.086781    0.967502    0.914969
C     -3.617357    0.310560   -0.935242
C     -5.234605   -2.863253    0.239504
C      0.610722   -0.498504   -0.968625
C     -2.790523   -2.939853    0.866468
C     -3.966629    2.563045    0.118926
C     -4.299422    1.097219    0.171443
C     -5.014971   -1.400903    0.123898
C      1.019873    0.451520   -0.088462
C     -3.958312   -3.674828    0.220229
C     -1.351599   -0.912525    0.358366
C     -3.669708   -1.161254   -0.570502
C     -2.660051   -1.544437    0.438816
C     -0.583029   -1.186820   -0.747308
C      2.325273    1.181165   -0.328613
O     -2.599944    2.778200    0.344856
O     -3.720657   -4.014850   -1.114536
O     -1.014965   -2.183919   -1.673703
H      7.565402   -0.998507    0.840912
H      7.447633   -1.232334   -0.973364
H      9.043932   -1.051021   -0.149668
H      2.149055    0.561365   -2.393418
H      3.620891    1.411983   -2.060151
H      3.401899   -0.320216   -1.439809
H      1.024599    2.606264   -1.210050
H      2.722117    3.083007   -1.239221
H      1.724509    3.186239    0.327495
H      8.919453    1.215857   -0.113946
H      7.657724    0.962770   -1.390717
H      7.127622    1.284393    1.646319
H      6.910016    2.493780    0.378124
H      5.314465    0.977535   -0.802742
H      5.597788   -0.247523    0.473881
H      4.530839    2.575173    1.101710
H      4.765699    1.202045    2.167756
H     -6.423641    1.286680    0.756030
H     -6.052708    1.477398   -0.975922
H     -7.024935   -0.820556    0.100611
H     -6.242991   -0.675698   -1.492089
H      0.588680    1.481695    1.714912
H     -1.483234    0.337454    2.135017
H      3.080576   -0.143776    1.106610
H      2.490423    1.350967    1.820928
H     -4.238609    0.446261   -1.831982
H     -2.612659    0.686699   -1.172716
H     -5.875897   -3.198770   -0.590995
H     -5.766829   -3.120434    1.189087
H      1.145846   -0.833644   -1.867280
H     -1.906104   -3.520602    0.412230
H     -2.864039   -3.063455    1.942066
H     -4.297282    3.007128   -0.833850
H     -4.474704    3.132204    0.938169
H     -3.987205    0.770457    1.191367
H     -4.858860   -1.033249    1.195592
H     -4.153702   -4.617897    0.740058
H     -3.575857   -1.738737   -1.482932
H     -3.080157   -0.987164    1.443379
H     -2.378251    3.616101   -0.132189
H     -2.768611   -4.303565   -1.147048
H     -0.448776   -2.395535   -2.460638
