52

C     -3.669110    4.629389    0.050370
C      4.224645    4.116263    0.418209
C     -0.098950   -4.717368   -1.260968
C     -2.410158   -1.002816    1.586088
C      1.328859   -1.030441    1.476665
C     -2.798133    0.328896    1.653760
C      1.716923    0.231776    1.562152
C      0.031998   -1.099454   -2.031199
C     -0.488499   -2.488747   -2.008217
C     -0.840861   -2.774074    0.743881
C     -3.294298    3.170772    0.041606
C      3.791052    2.701685    0.240456
C     -1.322489   -1.388800    0.831848
C      1.325186   -1.635523    0.085020
C      0.502131   -2.906328    0.118634
C     -2.082480    1.307189    0.950681
C      2.103355    0.925799    0.346930
C     -0.667968   -0.384448    0.168021
C     -0.981992    0.931257    0.185397
C      1.101871    0.743593   -0.736600
C      0.513058   -0.639245   -0.711955
N      0.406296   -3.362499   -1.269764
O     -3.824391    2.465959   -0.855616
O      4.588370    1.825461   -0.176921
O     -2.412842    2.643129    0.974946
O      2.532373    2.248482    0.506315
O     -0.056645    1.593004   -0.615420
Cl     0.684137    0.000000    0.000000
H     -4.484103    4.828895    0.777406
H     -2.797360    5.244880    0.378164
H     -3.986110    4.965894   -0.943985
H      3.793413    4.502727    1.370147
H      3.981424    4.757166   -0.428576
H      5.339918    4.142394    0.571126
H      0.286271   -5.204748   -0.331642
H      0.327423   -5.229452   -2.157881
H     -1.190646   -4.780025   -1.327645
H     -2.964288   -1.754250    2.130248
H      1.030571   -1.604570    2.339748
H     -3.647031    0.630445    2.241611
H      1.712881    0.657362    2.574788
H     -0.847402   -0.435915   -2.298759
H      0.745707   -0.922486   -2.866479
H     -0.463638   -2.879529   -3.066300
H     -1.535069   -2.552002   -1.707557
H     -0.860979   -3.245292    1.756512
H     -1.581956   -3.379438    0.142974
H      2.318517   -1.837467   -0.294250
H      1.074401   -3.678538    0.656188
H      3.028769    0.378274   -0.036978
H      1.501989    0.962762   -1.753179
H     -0.684137    0.000000    0.000000
