53

C      3.518942    3.569961    0.481799
C      2.176245    2.890284    0.645214
C      5.364104   -0.845127    1.654809
C     -6.353202    2.033522    0.516052
C      4.095401   -0.800194    2.193534
C      5.606881   -0.090132    0.526706
C     -5.228818    2.063363    1.307957
C     -6.357269    1.146600   -0.547574
C     -0.220286   -4.390736   -1.335604
C     -1.522971   -4.807331   -1.350544
C      3.109020   -0.025524    1.619482
C      4.610990    0.685996   -0.044826
C     -4.123931    1.257743    1.087330
C     -5.259329    0.343200   -0.770240
C      0.089243   -3.055100   -1.043533
C     -2.536151   -3.919509   -1.079438
C      3.334592    0.736544    0.490065
C     -4.134806    0.377356    0.026828
C     -0.880814   -2.137881   -0.768325
C      2.248706    1.565182   -0.098405
C     -2.189433   -2.619838   -0.798147
C     -0.605690   -0.794107   -0.471325
C     -3.003495   -0.488054   -0.247652
C     -1.685181    0.017320   -0.212966
C      0.752414   -0.318630   -0.447895
N     -3.181220   -1.762116   -0.534534
N      0.982442    0.920273   -0.168935
O     -1.583607    1.340603    0.090199
O      1.898134   -1.041626   -0.695698
Cl     0.685614    0.000000    0.000000
H      3.768348    3.694838   -0.597055
H      4.310954    2.931189    0.923154
H      3.561851    4.538028    1.022662
H      1.379034    3.526572    0.236577
H      2.049102    2.644277    1.717739
H      6.158444   -1.450675    2.092419
H     -7.221701    2.658750    0.679704
H      3.917846   -1.394566    3.075194
H      6.606988   -0.128578    0.105987
H     -5.235754    2.762692    2.139610
H     -7.235066    1.114368   -1.176317
H      0.593321   -5.084853   -1.548855
H     -1.728032   -5.853107   -1.581610
H      2.104683    0.001487    2.057279
H      4.796513    1.273285   -0.920618
H     -3.262539    1.337004    1.761341
H     -5.338916   -0.331040   -1.630222
H      1.121752   -2.780647   -1.044505
H     -3.548931   -4.276751   -1.098959
H      2.541921    1.834416   -1.154998
H     -0.822995    1.905369    0.173892
H      2.562262   -0.774103   -1.442190
H     -0.685614    0.000000    0.000000
