39

C     -4.731112    0.062433    0.756365
C      0.450488   -3.397018    0.887148
C     -0.618952   -2.637157    0.446017
C      1.715855   -2.809418    0.860889
C      4.161834    2.355384   -0.786046
C      3.641737    3.566472   -0.622282
C      3.908953   -0.126287   -0.984527
C      3.348596    1.275531   -0.776849
C     -0.416545   -1.334446   -0.003755
C      1.902872   -1.531210    0.417689
C      0.834914   -0.776941   -0.020896
C      0.844885    0.594128   -0.517130
C      2.016814    1.507634   -0.594886
C     -2.370602   -0.036012    0.370781
C     -3.569538    0.725900    0.026688
C     -3.890191    0.760753   -1.449897
F     -5.074705    1.505263   -1.562205
F     -2.955910    1.477670   -2.164743
F     -4.119147   -0.470297   -1.983099
N     -1.558002   -0.613600   -0.440702
O     -0.225811    1.087097   -0.927381
O     -2.084200   -0.141142    1.745263
O     -3.456873    2.012635    0.497739
O      4.439936   -2.268697    0.593725
O      3.761750   -0.125853    1.673334
S      1.872121    3.245058   -0.433451
S      3.579170   -1.053355    0.483159
H     -4.611570    0.284278    1.851578
H     -5.664996    0.487661    0.384894
H     -4.729479   -1.041040    0.615409
H      0.274998   -4.405715    1.232684
H     -1.603545   -3.085319    0.463008
H      2.529573   -3.432734    1.213202
H      5.268578    2.216008   -0.931510
H      4.120031    4.616372   -0.593812
H      3.312903   -0.596436   -1.806263
H      4.954162   -0.127942   -1.270082
H     -1.155414   -0.347057    2.087767
H     -4.103579    2.577401    0.009879
