71

C      6.703721    2.247699    1.028999
C      3.569702   -0.771848   -2.486776
C      3.301015   -3.005824   -1.617828
C      5.254977    2.677257    1.252267
C      4.565232    1.726597    2.213296
C      4.529989    0.315706    1.723015
C      3.769420    0.176406    0.415111
C     -4.322993    2.408076   -0.185266
C     -5.141547    1.277789    0.449971
C      0.952561   -2.337218   -0.266159
C     -0.414035   -2.301543   -0.067711
C      3.777289   -1.251562   -0.024028
C     -2.408282    0.976153    0.647174
C     -5.404340   -1.193731   -0.014613
C      0.760648   -0.518942   -1.752698
C     -3.281726   -2.589915    0.098535
C     -2.550843    3.383992    1.122922
C     -2.858258    2.277572    0.102839
C     -4.613165    0.034173   -0.163405
C      1.571349   -1.427647   -1.130948
C     -4.725763   -2.427687    0.460119
C     -1.246147   -1.380779   -0.697710
C     -3.209952   -0.210664    0.368991
C     -2.683634   -1.311507   -0.486098
C     -0.606823   -0.487600   -1.550196
C      3.048108   -1.517685   -1.305243
O     -3.345677    3.119529    2.226150
O     -4.955759   -2.623443    1.845703
O     -1.303271    0.490668   -2.258464
H      7.206242    2.190380    2.017804
H      7.215762    3.054348    0.472315
H      6.771015    1.313496    0.460972
H      4.613389   -1.096383   -2.651460
H      3.015345   -1.164746   -3.386318
H      3.420426    0.308833   -2.476313
H      2.510806   -3.293695   -2.349807
H      3.313791   -3.607150   -0.707722
H      4.288627   -3.090977   -2.154242
H      5.298303    3.666450    1.752805
H      4.761866    2.764918    0.280268
H      3.575368    2.113656    2.515172
H      5.186756    1.739892    3.136371
H      5.557614   -0.095707    1.628087
H      3.997504   -0.290389    2.481206
H      4.247444    0.863235   -0.294021
H      2.743446    0.565120    0.588180
H     -4.749641    3.399793    0.074367
H     -4.458094    2.272500   -1.278872
H     -5.049603    1.347877    1.541748
H     -6.190042    1.443590    0.086670
H      1.547080   -3.082642    0.251771
H     -0.847727   -3.027170    0.603341
H      3.278224   -1.864889    0.779514
H      4.828432   -1.616085   -0.042989
H     -2.328942    1.137469    1.787783
H     -1.345576    0.793904    0.385287
H     -5.963618   -1.376527   -0.976034
H     -6.249276   -0.966660    0.714042
H      1.256643    0.184809   -2.426655
H     -3.103904   -3.431527   -0.588199
H     -2.750165   -2.823995    1.042805
H     -1.486930    3.315412    1.438070
H     -2.818896    4.371183    0.688629
H     -2.236701    2.547218   -0.784360
H     -4.462091    0.256332   -1.259664
H     -5.270760   -3.297660   -0.011969
H     -3.413052   -0.696611    1.398045
H     -3.164467   -1.216256   -1.505256
H     -4.223771    3.579854    2.197181
H     -4.971725   -3.589889    2.080802
H     -2.280898    0.644669   -2.225418
