39

C      4.818310    0.692284    0.852708
C     -0.434652   -2.847655    1.928745
C      0.660257   -2.171132    1.426319
C     -1.724057   -2.423083    1.649117
C     -3.923371    1.375827   -2.468774
C     -3.420188    2.546139   -2.907768
C     -3.805685   -0.736211   -1.172444
C     -3.193932    0.587753   -1.645560
C      0.445021   -1.042446    0.625247
C     -1.934819   -1.328588    0.872249
C     -0.842976   -0.631487    0.355964
C     -0.856320    0.544826   -0.466234
C     -1.979876    1.023414   -1.301958
C      2.375134    0.335846    0.776865
C      3.515221    1.001070    0.112037
C      3.711875    0.550898   -1.319570
F      2.642191    0.758197   -2.121009
F      4.151379   -0.761378   -1.317515
F      4.770162    1.306292   -1.820590
N      1.556387   -0.363943    0.110688
O      0.188310    1.255738   -0.490389
O      2.200761    0.482650    2.141043
O      3.359002    2.381558    0.118325
O     -4.048892    0.280275    1.341269
O     -4.451709   -2.081716    1.000535
S     -1.791837    2.616902   -2.145176
S     -3.608284   -0.913216    0.585269
H      4.654313    0.589764    1.942845
H      5.577440    1.475504    0.668783
H      5.231341   -0.261621    0.461348
H     -0.284602   -3.711026    2.541995
H      1.669489   -2.447856    1.605321
H     -2.593361   -2.943434    2.035906
H     -4.963654    1.095286   -2.818810
H     -3.830957    3.311860   -3.560434
H     -4.875751   -0.791075   -1.374574
H     -3.305857   -1.586634   -1.653227
H      1.416955    0.119234    2.660743
H      2.927233    2.711183    0.943810
