47

C      6.327512    1.821250   -1.255208
C     -4.285310   -1.431793   -1.812442
C     -4.299908   -2.025333   -0.576952
C     -3.220556   -0.648648   -2.143255
C     -3.261766   -1.853215    0.350627
C      4.809397    0.509449    0.165986
C      4.106904    0.976117   -2.043534
C      3.636272   -0.182826    0.405915
C      2.939842    0.284860   -1.798045
C     -1.691661    1.007667    2.577829
C     -3.201073    1.056762    2.437873
C     -1.072952    0.388378   -1.725549
C     -0.275283    0.882951   -0.573054
C      5.057140    1.089739   -1.043815
C     -2.173452   -0.466353   -1.226271
C      2.695669   -0.291928   -0.592531
C     -2.197513   -1.064520    0.009939
C     -1.407632   -0.408535    2.312278
C     -3.541727   -0.203991    3.150659
C     -1.079896   -0.848939    0.941257
N      0.010245   -0.121463    0.376835
O     -4.568289   -0.451865    3.817727
O      1.568809   -2.231682    0.762378
O      0.737208   -1.891362   -1.503015
O     -2.482178   -1.071739    2.930752
S      1.217840   -1.171387   -0.273963
H      6.143947    2.846807   -1.639719
H      6.845410    1.947977   -0.285626
H      6.958635    1.217311   -1.957676
H     -5.082913   -1.556042   -2.541189
H     -5.135954   -2.640362   -0.317699
H     -3.210615   -0.179213   -3.122896
H     -3.370604   -2.379474    1.293477
H      5.575517    0.608960    0.950641
H      4.295745    1.430930   -2.999255
H      3.497677   -0.619954    1.383251
H      2.191981    0.196563   -2.590578
H     -1.520327    1.178354    3.691333
H     -1.139500    1.780819    2.087631
H     -3.649383    1.941264    2.897813
H     -3.520599    1.025167    1.375107
H     -1.551148    1.269546   -2.245481
H     -0.460981   -0.149318   -2.484962
H     -0.770992    1.803288   -0.207988
H      0.716228    1.211694   -0.999785
H     -0.498815   -0.673941    2.949846
H     -0.660952   -1.911969    1.091333
