39

C      0.286277   -3.308115    0.602951
C     -0.906470   -3.761619    0.114956
C      0.660080   -1.969486    0.460421
C     -1.734613   -2.859114   -0.523009
C     -4.567508    2.083236   -0.760840
C     -4.084132    0.866068   -1.207615
C      3.808602    0.694225    0.763774
C      3.071752   -0.465789   -1.148835
C      5.075496    0.252728    0.502150
C      4.353606   -0.900162   -1.395567
C     -2.511968    2.552867    0.378908
C      2.760415    0.341591   -0.066019
C     -3.785834    2.918390    0.026298
C     -0.171380   -1.082291   -0.178168
C     -2.066614    1.346120   -0.077793
C     -1.407441   -1.536115   -0.684283
C     -2.837743    0.489480   -0.871821
C      0.251692    0.284926   -0.343232
C      1.453667    0.851446    0.216412
C     -0.186689    1.540349    1.593100
Cl    -4.499722    4.434245    0.539940
N      5.331724   -0.535954   -0.570024
N     -0.765755    1.099678    0.379990
O     -0.707224    2.226553    2.458223
O     -2.408348   -0.774392   -1.364168
O      1.106386    1.025380    1.598010
H      0.982144   -3.939380    1.108889
H     -1.216344   -4.776418    0.208586
H      1.592735   -1.613998    0.868830
H     -2.683013   -3.242189   -0.905866
H     -5.581810    2.342426   -1.059106
H     -4.699123    0.205334   -1.829341
H      3.647263    1.323142    1.631706
H      2.283016   -0.783580   -1.849771
H      5.888997    0.542660    1.169829
H      4.530793   -1.536173   -2.269047
H     -1.898345    3.174220    0.960110
H      0.159081    0.540714   -1.437100
H      1.476347    1.948995   -0.139707
