47

C      6.487707   -0.148331   -0.668987
C     -4.412232   -2.988262   -0.325445
C     -4.728470   -1.821552   -0.942763
C     -3.139901   -3.162567    0.220609
C     -3.761240   -0.817031   -1.014074
C      4.276767    1.052163   -0.713430
C      4.467824   -0.913541    0.571891
C      2.954948    1.155351   -0.317188
C      3.128273   -0.803963    0.970128
C     -1.612948    2.632456   -0.807732
C     -1.886118    3.735032    0.153800
C     -0.843748   -2.389771    0.680903
C      0.056830   -1.628598   -0.311733
C      5.056710    0.010257   -0.272130
C     -2.202506   -2.177029    0.145926
C      2.373100    0.230700    0.524808
C     -2.483746   -0.987150   -0.465784
C     -2.143239    1.395193   -0.150799
C     -2.417963    3.087326    1.348991
C     -1.533912    0.133903   -0.575104
N     -0.243510   -0.198574   -0.232362
O     -2.968460    3.662952    2.315380
O      0.526694   -0.265557    2.295592
O      0.582238    1.949869    1.189914
O     -2.196373    1.701260    1.210790
S      0.666580    0.468482    0.974807
H      6.584272    0.228057   -1.725574
H      7.071176    0.574606   -0.049094
H      6.827780   -1.179813   -0.588401
H     -5.145088   -3.771686   -0.261069
H     -5.704927   -1.632854   -1.386137
H     -2.950692   -4.119073    0.700285
H     -4.037120    0.083983   -1.526838
H      4.710156    1.784914   -1.370883
H      5.066379   -1.739032    0.928391
H      2.330461    1.991364   -0.671759
H      2.689348   -1.530933    1.631047
H     -2.235971    2.866449   -1.739683
H     -0.548419    2.555852   -1.138997
H     -2.643030    4.443593   -0.270372
H     -0.944668    4.304961    0.355486
H     -0.533012   -3.455323    0.582621
H     -0.692717   -2.097858    1.710031
H     -0.197957   -1.980181   -1.317916
H      1.079273   -1.890815   -0.076899
H     -3.253171    1.401894   -0.442554
H     -1.475377    0.248878   -1.741860
