54

C     -4.584399   -2.474072    2.083243
C      0.346167    5.462143    0.375086
C     -4.962324   -1.354543    1.134851
C     -3.574537   -3.405446    1.473503
C     -0.639688    4.721685    0.941495
C      1.166370    4.883973   -0.585266
C     -3.798470   -0.464047    0.799454
C     -2.781968   -2.658461    0.429848
C     -0.843213    3.414364    0.585588
C      0.964756    3.562378   -0.948813
C     -1.493094   -0.668348   -0.150396
C      5.081643   -1.343145   -0.105641
C      4.122328   -0.675827    0.617484
C     -1.251180    0.790235    0.212288
C      3.876368   -1.104869   -2.129253
C     -2.486568   -1.232084    0.851259
C     -0.048806    2.828509   -0.355377
C      4.990071   -1.573398   -1.472806
C      3.006184   -0.207717   -0.047473
C      2.892790   -0.424134   -1.404751
C     -0.269014    1.422757   -0.743477
C      1.842791    0.514213    0.402788
C      1.635945    0.161496   -1.867595
C      6.050729   -2.292729   -2.182000
N      1.006571    0.733467   -0.737625
O      1.592129    0.893472    1.592831
O      1.232916    0.133492   -3.070364
O      5.901473   -2.464756   -3.417034
O      7.173568   -2.774535   -1.566439
H     -5.529733   -2.987227    2.353950
H     -4.119459   -2.009579    2.972375
H      0.504329    6.507167    0.663576
H     -5.487673   -1.731793    0.234703
H     -5.723185   -0.733073    1.679963
H     -2.907029   -3.780186    2.264563
H     -4.083440   -4.267299    0.990762
H     -1.274904    5.207863    1.700988
H      1.931955    5.496920   -1.009509
H     -3.926154   -0.146122   -0.267951
H     -3.700442    0.407849    1.464863
H     -3.295364   -2.632257   -0.558449
H     -1.788466   -3.152432    0.226227
H     -1.660193    2.875707    1.090665
H      1.620606    3.135665   -1.702146
H     -0.544973   -1.200121    0.001441
H     -1.898041   -0.759034   -1.174414
H      5.972002   -1.722613    0.395218
H      4.185429   -0.492566    1.679737
H     -2.272728    1.263389    0.107055
H     -0.967546    0.872002    1.257976
H      3.762295   -1.259580   -3.186893
H     -2.052843   -1.235726    1.859816
H     -0.678337    1.430158   -1.790001
H      7.784360   -3.491186   -1.969922
