55

C      4.888773    1.007655   -1.554605
C     -3.413462   -2.024396    1.542076
C      5.184258   -1.910353    2.460281
C      4.110695   -1.093744    2.814556
C      5.480161   -2.026360    1.122920
C     -5.049769   -1.074480   -0.738545
C     -4.660751    0.348835   -0.509085
C     -0.839691    2.668386   -2.590868
C     -3.892299   -2.019936   -0.829463
C      3.386155   -0.434026    1.857328
C      4.736438   -1.353398    0.154953
C      0.490828    2.623228   -2.829172
C     -1.380417    1.865499   -1.569553
C     -3.467366    0.567603    0.353561
C      2.661692    1.780135   -2.236564
C     -0.913584    0.551827    1.663241
C      3.422654    0.985380   -1.397044
C     -2.782384   -1.716132    0.184657
C      3.686563   -0.548388    0.484874
C      1.295478    1.792607   -2.067758
C     -0.646622    1.028377   -0.784995
C     -1.087697    0.062393    0.218763
C      2.848152    0.220965   -0.413894
C      0.753894    1.018821   -1.079353
N      1.490801    0.240078   -0.256738
N     -2.440349   -0.354155    0.031343
O     -1.721897    1.596774    2.020327
H      5.149067    2.087709   -1.813165
H      5.418973    0.860982   -0.588779
H      5.286560    0.433294   -2.396157
H     -4.416098   -1.530325    1.555939
H     -3.556868   -3.137011    1.553693
H     -2.768614   -1.784922    2.382311
H      5.749140   -2.417611    3.233495
H      3.816254   -0.954885    3.859612
H      6.310659   -2.657768    0.862317
H     -5.785724   -1.404612    0.037088
H     -5.598893   -1.106818   -1.708014
H     -5.526702    0.836111    0.048900
H     -4.635749    0.961440   -1.458328
H     -1.525407    3.314809   -3.160669
H     -3.470303   -2.136106   -1.839611
H     -4.273276   -3.012969   -0.519756
H      2.545988    0.194046    2.167728
H      5.020165   -1.484066   -0.867671
H      0.977925    3.204444   -3.597130
H     -2.467608    1.935359   -1.477005
H     -3.834440    0.349726    1.427046
H     -3.174238    1.618214    0.362637
H      3.138266    2.362950   -2.993140
H      0.151331    0.966173    1.753360
H     -0.989207   -0.256863    2.390936
H     -1.959155   -2.406049   -0.070014
H     -0.413378   -0.864021    0.198489
H     -1.308925    2.225573    2.663047
