49

C      1.875220    4.737479   -0.615948
C      2.745108    3.798523   -1.107780
C      0.727744    4.322252    0.054726
C     -6.779650    0.653922    0.505467
C      2.433175    2.463189   -0.909159
C      0.463072    2.997251    0.227528
C     -5.458050    0.554871    0.135556
C      2.262652   -3.854171   -0.990118
C     -7.132197    0.128519    1.739210
C      0.818240   -3.554666   -1.380095
C      4.138867   -2.079331   -0.294733
C      3.274838    0.061823    0.208149
C     -4.899646   -0.543031    2.151489
C      1.334366    1.993769   -0.262218
C      2.857530   -2.557012   -0.559395
C     -4.483890   -0.032783    0.921480
C      4.367578   -0.768761    0.092721
C      1.993836   -0.380746   -0.052798
C      0.985009    0.638953    0.067628
C      1.806076   -1.691578   -0.428814
C     -0.840634   -0.820075    0.959504
C     -3.096922   -0.118166    0.495080
C     -0.682460   -1.910624   -0.049613
N      5.687543   -0.291707    0.359493
N     -6.187512   -0.449386    2.517879
N     -0.200922    0.417390    0.547323
N     -2.227758   -0.656894    1.225943
N      0.540333   -2.375622   -0.605172
O     -2.751281    0.405249   -0.731587
O     -1.697209   -2.469411   -0.446898
H      2.063376    5.790379   -0.738956
H      3.632689    4.114057   -1.626508
H      0.053385    5.099637    0.433822
H     -7.528453    1.126598   -0.141776
H      3.121717    1.759206   -1.390352
H     -0.446096    2.713459    0.758186
H     -5.132166    0.953067   -0.824954
H      2.273182   -4.601309   -0.186795
H      2.836816   -4.182151   -1.880773
H     -8.160118    0.198458    2.041530
H      0.153502   -4.396769   -1.173634
H      0.845393   -3.260209   -2.449461
H      4.965964   -2.754997   -0.397108
H      3.435152    1.065744    0.576006
H     -4.187626   -1.011532    2.806102
H     -0.323275   -1.157703    1.874828
H      6.445532   -0.598730   -0.278531
H      5.934086    0.338335    1.146020
H     -1.856114    0.185238   -1.146990
