54

C     -4.748904    0.091659   -2.067251
C      0.959388   -0.900462    5.059621
C     -3.436352   -0.493790   -2.496649
C     -4.863226    0.267244   -0.574428
C      0.309242    0.278068    4.790681
C      1.207932   -1.859304    4.098673
C     -2.477501   -0.323604   -1.296759
C     -3.883007    1.323674   -0.099826
C     -0.112565    0.496824    3.473821
C      0.768883   -1.587226    2.821558
C     -1.413291    1.716685   -0.217757
C      4.212100   -1.783316   -2.624793
C      2.972562   -2.148845   -2.154219
C     -0.882408    1.165862    1.032464
C      4.091410    0.173109   -1.213779
C     -2.586224    1.092900   -0.865986
C      0.113211   -0.417807    2.510929
C      4.770767   -0.597759   -2.137288
C      2.268670   -1.408407   -1.237296
C      2.868234   -0.234279   -0.781414
C     -0.340498   -0.194534    1.110243
C      0.969115   -1.574922   -0.595447
C      1.955019    0.367748    0.162339
C      6.075275   -0.143760   -2.585067
N      0.803428   -0.463977    0.262186
O      0.185481   -2.551819   -0.808820
O      2.178277    1.462326    0.782603
O      6.717578   -0.818799   -3.421433
O      6.613220    1.027567   -2.095195
H     -4.873401    1.084183   -2.535098
H     -5.614713   -0.556581   -2.376116
H      1.300211   -1.092338    6.091993
H     -3.017576   -0.008262   -3.400140
H     -3.567892   -1.584727   -2.644125
H     -4.792238   -0.672654   -0.012325
H     -5.903404    0.654377   -0.389785
H      0.131182    1.014740    5.583247
H      1.727919   -2.782315    4.354192
H     -2.869670   -1.070049   -0.565338
H     -1.453304   -0.506606   -1.626868
H     -3.732581    1.307814    0.984710
H     -4.341427    2.304805   -0.348046
H     -0.613635    1.462552    3.355103
H      0.969554   -2.354600    2.059912
H     -1.747398    2.777503    0.022648
H     -0.647472    1.894032   -1.007491
H      4.753924   -2.376773   -3.346700
H      2.490627   -3.070646   -2.505588
H     -0.110189    1.865309    1.453250
H     -1.721798    1.199461    1.811322
H      4.530764    1.107262   -0.829153
H     -2.746360    1.692538   -1.822196
H     -1.072940   -1.019235    0.938563
H      7.626005    1.176632   -2.077681
