37

C      0.315208   -0.471729    1.969115
C     -3.223716   -1.031982   -0.690396
C     -3.387569    1.362192   -0.349170
C      4.031358   -0.964175   -0.301079
C      2.660409   -1.195807   -0.398355
C      4.505020    0.320149   -0.175496
C      2.243577    1.103337   -0.246468
C     -1.497331    0.544027   -1.629588
C     -0.326255    0.194303    0.776861
C      1.738532   -0.174549   -0.373298
C      3.611090    1.351507   -0.148276
C     -2.368000    0.219024   -0.485143
C      0.273969   -0.405769   -0.469314
Cl     4.214562    3.004836    0.019616
N     -1.747711    0.100075    0.797659
O      0.077833   -1.796504   -0.530944
O     -0.207310    0.117050   -1.623779
Cl     0.687289    0.000000    0.000000
H     -0.016024   -1.517390    2.089672
H      1.429768   -0.443142    1.809700
H      0.074786    0.059941    2.918476
H     -3.773091   -1.012702   -1.628112
H     -2.665484   -1.964031   -0.598418
H     -3.988469   -0.987627    0.134123
H     -4.384189    1.005014   -0.093423
H     -3.007123    2.125685    0.360855
H     -3.483448    1.903806   -1.336978
H      4.706351   -1.805341   -0.325858
H      2.274607   -2.203551   -0.497265
H      5.561880    0.530346   -0.098141
H      1.585128    1.959577   -0.222898
H     -1.988035    0.116476   -2.555979
H     -1.505996    1.650284   -1.826172
H     -0.023487    1.260229    0.806944
H     -2.093958   -0.671378    1.392947
H      0.383118   -2.282180    0.248706
H     -0.687289    0.000000    0.000000
