33

C      2.370075   -0.344377    1.137951
C      2.845960   -0.160685   -1.161411
C      3.726555   -0.444788    1.373542
C      4.203520   -0.261734   -0.919587
C     -4.308289    0.959853    0.239010
C     -2.250791    2.096283    0.501958
C      1.907587   -0.198849   -0.153339
C      4.670780   -0.407377    0.369927
C     -3.624814    2.135188    0.443672
C     -3.651887   -0.276896    0.087869
C     -1.565789    0.918748    0.360944
C     -2.288812   -0.240474    0.157316
C     -1.518836   -1.482870    0.027462
C     -0.152366   -1.457427   -0.540876
C      0.459676   -0.086794   -0.473068
O      6.037929   -0.511230    0.636243
O     -4.306528    3.330203    0.587635
O     -4.360425   -1.422809   -0.115477
O     -1.997217   -2.579430    0.391954
O     -0.255531   -1.832782   -1.877162
O     -0.201672    0.796834    0.406223
H      1.637939   -0.376101    1.945589
H      2.530873   -0.046023   -2.209824
H      4.088205   -0.558574    2.383196
H      4.935920   -0.230159   -1.725929
H     -5.391227    0.909532    0.181062
H     -1.717661    3.019200    0.662308
H      0.506921   -2.214431   -0.040149
H      0.402524    0.361950   -1.492022
H      6.506526    0.392832    0.802919
H     -4.571843    3.587992    1.541233
H     -4.079833   -2.349438   -0.250534
H     -0.587472   -1.025371   -2.383316
