39

C      4.956172   -1.199958   -0.378925
C      2.278667    1.925827    0.079196
C      3.167558    0.883794   -0.073443
C     -2.393116   -1.265005    1.465199
C     -1.464510   -0.363575    1.238313
C     -1.742495    0.791813   -0.863887
C     -1.937518    2.000588    0.020820
C     -1.611730   -2.621491   -0.330620
C      0.228395    3.008069    0.268346
C      0.895892    1.699587    0.087059
C     -2.867031   -2.119573    0.351333
C      2.695978   -0.404116   -0.221280
C     -0.727316   -1.501672   -0.780756
C      0.472952    0.404078   -0.062988
C      1.328780   -0.660775   -0.217667
C     -0.902917   -0.200496   -0.098572
N     -1.062079    3.073787   -0.372901
O     -3.584059   -3.225955    0.813106
O      3.570923   -1.462196   -0.375534
O      0.605250   -1.849450   -0.346927
H      5.485161   -2.150176   -0.482449
H      5.212098   -0.694538    0.576347
H      5.197474   -0.559063   -1.266850
H      2.695598    2.916116    0.191434
H      4.248163    1.098034   -0.074891
H     -2.840299   -1.414736    2.460784
H     -1.153207    0.232199    2.117203
H     -2.721636    0.449915   -1.174101
H     -1.159681    1.099258   -1.781649
H     -1.800523    1.821197    1.089253
H     -2.993152    2.397501   -0.067452
H     -1.095489   -3.245546    0.439894
H     -1.848081   -3.292380   -1.182996
H      0.049390    3.173083    1.361147
H      0.863695    3.851450   -0.067142
H     -3.493606   -1.640469   -0.390450
H     -0.732168   -1.411431   -1.898731
H     -1.542676    3.970972   -0.213936
H     -4.278859   -3.514666    0.164715
