31

C      0.063381    2.499377   -1.012583
C     -0.423685    1.814767    0.230462
C      3.563562   -1.201775   -0.136398
C      2.765557   -1.219286   -1.260472
C      3.108790   -0.707084    1.065320
C      1.463941   -0.714949   -1.148439
C      1.806440   -0.214915    1.131955
C     -2.686312   -0.109656   -0.503795
C     -1.255107   -0.087037   -1.029563
C      0.985062   -0.216492    0.035344
C     -2.764608   -1.320581    0.355580
C     -0.998096   -0.220232    1.372241
C     -0.371100    0.303831    0.132152
N     -1.877978   -1.354596    1.322051
O     -3.650754   -2.346223    0.214292
O     -0.754662    0.341303    2.496899
H     -0.772970    2.998881   -1.581621
H      0.540141    1.815665   -1.740421
H      0.755959    3.347579   -0.756504
H      0.189262    2.175562    1.101535
H     -1.460687    2.146792    0.439289
H      4.582704   -1.601761   -0.242596
H      3.093406   -1.601343   -2.219741
H      3.751478   -0.710027    1.908269
H      0.806195   -0.708330   -2.003533
H      1.523861    0.159168    2.117038
H     -2.916134    0.752766    0.136154
H     -3.403599   -0.225934   -1.346863
H     -1.072402   -1.137208   -1.368905
H     -1.231175    0.642874   -1.860424
H     -3.360472   -3.301136    0.430431
