39

C      4.985149   -0.200092    0.390894
C      1.675999    2.397437   -0.416085
C      2.777963    1.600846   -0.160823
C     -1.989623   -1.995289   -1.563507
C     -1.339348   -0.852374   -1.463390
C     -2.105284    0.470435    0.416666
C     -1.706340    1.736665    1.092373
C     -1.133259   -2.780544    0.559929
C     -0.658251    2.930798   -0.726740
C      0.372588    1.887672   -0.431348
C     -2.352243   -2.766402   -0.342018
C      2.584090    0.249739    0.088855
C     -0.506232   -1.450387    0.731027
C      0.214229    0.546850   -0.180773
C      1.308952   -0.255536    0.075379
C     -0.972953   -0.341989   -0.119363
N     -1.699223    2.898513    0.258382
O     -2.627202   -4.100548   -0.648656
O      3.647201   -0.590966    0.349282
O      0.867810   -1.572216    0.297579
H      5.576083   -0.995206    0.881585
H      5.347225   -0.128812   -0.672358
H      5.093541    0.791274    0.882606
H      1.816724    3.446864   -0.610762
H      3.786208    2.013588   -0.152798
H     -2.281690   -2.412994   -2.521361
H     -1.087679   -0.312743   -2.362363
H     -2.731582   -0.138812    1.100553
H     -2.758621    0.743205   -0.435890
H     -2.420911    1.930603    1.920702
H     -0.702974    1.663321    1.577769
H     -1.430631   -3.220806    1.540840
H     -0.441054   -3.551852    0.108814
H     -0.140400    3.907768   -0.628942
H     -1.021140    2.873368   -1.771427
H     -3.253835   -2.371178    0.164416
H     -0.429120   -1.215689    1.811222
H     -1.782956    3.778477    0.772370
H     -2.481209   -4.612990    0.187359
