31

C      4.790674    0.065706   -0.042757
C      1.057951    1.271094   -0.738533
C      0.007801    1.967504   -1.291580
C     -0.380196   -0.360678    0.179328
C     -3.191427   -0.839688    1.036651
C      0.896312    0.122283   -0.009767
C     -1.494473    0.315354   -0.362295
C     -1.285103    1.458150   -1.080715
C     -2.863438   -0.304304   -0.343792
F     -2.393185    2.136506   -1.544465
N     -3.537469    0.413267    1.776240
N      2.010028   -0.653259    0.460091
O     -2.646831   -1.514425   -1.160856
O      3.611340   -2.260002   -0.919879
O      2.960382   -0.154656   -1.960675
S      3.360012   -0.798510   -0.642208
Cl     0.685062    0.000000    0.000000
H      4.503913    0.728843    0.776130
H      5.173242    0.696206   -0.881244
H      5.601412   -0.670825    0.234649
H      2.076461    1.618988   -0.863791
H      0.092320    2.851329   -1.848077
H     -0.520695   -1.270064    0.739674
H     -4.004952   -1.551589    1.007987
H     -2.271967   -1.206064    1.516488
H     -3.617238    0.286165   -0.797024
H     -4.568719    0.547293    1.760911
H     -3.158442    0.434727    2.737321
H      2.039964   -1.142216    1.386953
H     -2.247678   -2.187138   -0.538862
H     -0.685062    0.000000    0.000000
