34

C     -0.045185   -2.530735   -0.151167
C      3.444354   -0.358162    0.540843
C      3.960657    0.751050   -0.071454
C     -3.071872    0.344089    0.116441
C     -2.279380    0.831010   -1.111596
C      2.076787   -0.610922    0.504271
C      3.075917    1.601258   -0.721288
C     -2.221726    0.670444    1.345353
C     -1.072876    0.000344   -1.276294
C      1.186246    0.238630   -0.146485
C      1.725571    1.346091   -0.754315
C     -0.802791    0.883587    0.899774
C     -0.221196   -0.109735   -0.094996
Cl     0.663058    2.436732   -1.586749
N     -0.368154   -1.379471    0.616461
O     -0.200958    1.814321    1.342158
Cl     0.687980    0.000000    0.000000
H      0.324747   -3.328074    0.530988
H      0.736276   -2.378654   -0.913470
H     -0.963797   -2.998768   -0.621229
H      4.127835   -1.023183    1.047596
H      5.024072    0.948027   -0.043110
H     -3.133916   -0.750152    0.020735
H     -4.066017    0.798841    0.168402
H     -2.132205    1.904653   -0.897928
H     -2.928331    0.759278   -2.021126
H      1.788467   -1.508282    1.032099
H      3.508661    2.485817   -1.206393
H     -2.616223    1.628074    1.740249
H     -2.308838   -0.092330    2.131093
H     -1.465967   -1.058195   -1.467885
H     -0.533827    0.168746   -2.241936
H     -1.209388   -1.484331    1.164738
H     -0.687980    0.000000    0.000000
