31

C     -4.295532   -0.792630    0.542586
C     -1.430844   -0.054877   -1.166562
C     -0.784954    0.623855   -2.174786
C      0.498850    0.043247    0.151533
C      3.167822    0.641138    0.613742
C     -0.839525   -0.376412    0.026815
C      1.155819    0.719388   -0.842683
C      0.519139    1.020285   -2.025217
C      2.557844    1.143095   -0.674316
F      1.175913    1.699499   -3.026951
N      3.312684   -0.788719    0.641416
N     -1.437427   -1.079592    1.104685
O      3.373888    0.776556   -1.730364
O     -2.894024    0.806198    2.109458
O     -3.296421   -1.412172    2.947512
S     -2.979396   -0.645225    1.681445
Cl     0.687972    0.000000    0.000000
H     -4.394176    0.146346   -0.034920
H     -4.114406   -1.611943   -0.198402
H     -5.274238   -1.020306    1.077926
H     -2.472233   -0.377323   -1.289065
H     -1.294379    0.852662   -3.094500
H      0.992762   -0.197857    1.094190
H      4.217028    1.059546    0.625918
H      2.681223    1.024626    1.515619
H      2.562639    2.254851   -0.609551
H      2.755513   -1.285622   -0.092045
H      4.312620   -1.110980    0.649896
H     -0.919791   -1.884565    1.556455
H      3.143602   -0.173072   -1.949903
H     -0.687972    0.000000    0.000000
