41

C      1.014680   -3.419391   -0.532697
C     -1.607517   -1.936455   -0.795060
C     -2.335587    2.052989    1.020840
C     -3.169887   -0.096263    1.017103
C      1.490496   -2.005973   -0.542461
C      2.532419    2.133505   -0.968435
C      1.813317    0.932970   -1.069215
C      2.745647    2.693486    0.280887
C      1.539849    0.875728    1.275521
C     -1.331616    0.550474   -0.416207
C     -0.715772   -0.770392   -0.795792
C      1.321616    0.311181    0.050601
C      2.257207    2.077633    1.404436
C      0.563601   -0.957044   -0.064245
N     -1.900888    0.638905    0.881417
O      2.475679    2.646055    2.655310
Cl     0.689166    0.000000    0.000000
H      0.636470   -3.775418   -1.530399
H      0.345856   -3.677162    0.308780
H      1.897573   -4.135389   -0.363853
H     -1.360098   -2.615612   -1.662655
H     -1.648079   -2.563581    0.097140
H     -2.663385   -1.598298   -1.084210
H     -2.836418    2.224269    1.972908
H     -1.440903    2.695024    0.863932
H     -3.022154    2.231673    0.150113
H     -3.706479    0.402211    1.886561
H     -3.028630   -1.128974    1.352021
H     -3.833084    0.044781    0.162730
H      2.424302   -1.997829    0.107824
H      1.909652   -1.749395   -1.571130
H      2.907443    2.598444   -1.866944
H      1.678415    0.545909   -2.051143
H      3.302086    3.623320    0.356146
H      1.190687    0.456268    2.207164
H     -0.545394    1.324779   -0.493100
H     -2.072095    0.801326   -1.208715
H     -0.416047   -0.612346   -1.894116
H      0.281792   -1.230085    1.017097
H      3.305243    2.408680    3.205596
H     -0.689166    0.000000    0.000000
