37

C     -0.809538    1.239853   -1.464229
C     -2.407007    1.249073    0.418317
C     -2.214055   -1.472439   -0.944316
C      2.781161    1.312026    0.575589
C      3.038931   -0.553121   -0.794564
C     -0.644307    0.085959    2.055142
C     -1.250557   -1.137106    1.356490
C      0.009963    0.782795    0.871894
C      1.018569   -0.179631    0.311353
C      0.258234   -1.175326   -0.547410
C     -1.131612    0.653017   -0.141206
C     -1.169525   -0.871530   -0.125119
N      2.083130    0.464914   -0.403094
O      0.353922   -0.929289   -1.888913
H     -1.275892    0.732034   -2.319397
H     -1.234540    2.287141   -1.475028
H      0.279812    1.391757   -1.639084
H     -2.162956    2.095475    1.109878
H     -3.031933    1.689787   -0.393720
H     -3.020770    0.485838    0.907842
H     -3.176772   -1.448144   -0.396077
H     -1.985232   -2.547037   -1.106307
H     -2.265536   -1.005023   -1.928829
H      2.410880    2.362235    0.506593
H      3.876127    1.245689    0.443147
H      2.556148    0.979389    1.609018
H      4.028543   -0.435835   -0.292581
H      3.263100   -0.369825   -1.884941
H      2.707311   -1.571301   -0.587258
H     -1.487984    0.677641    2.453817
H      0.071075   -0.195832    2.823632
H     -2.262973   -1.353221    1.713848
H     -0.574537   -1.998886    1.583034
H      0.338965    1.781860    1.049309
H      1.462665   -0.742153    1.156827
H      0.457035   -2.216755   -0.257062
H      1.110156   -1.314030   -2.356595
