28

C      0.423747   -0.483250   -0.142721
C      1.560691    0.486597   -0.453315
C     -0.771974    0.025935   -0.896475
C      2.836747    0.090092    0.271827
C     -2.307656   -0.942590    0.768727
C     -2.635384    0.415423    1.317128
C     -1.951431   -0.864750   -0.682395
C      3.868152    1.077696   -0.106158
O      4.122138    1.242465   -1.321715
O      4.517415    1.785375    0.880733
S     -4.012041    1.215996    0.480026
S     -1.492360   -2.520603   -1.301074
H      0.735238   -1.498452   -0.459008
H      0.237940   -0.478529    0.930533
H      1.264714    1.475402   -0.047120
H      1.739996    0.544610   -1.536215
H     -0.549243    0.081151   -2.001448
H     -1.016850    1.051965   -0.545050
H      3.159210   -0.929713   -0.065510
H      2.680521    0.067296    1.361239
H     -1.485687   -1.361813    1.378098
H     -3.156309   -1.662764    0.925849
H     -1.751565    1.064972    1.316210
H     -2.899132    0.288883    2.400819
H     -2.807531   -0.454596   -1.268810
H      5.357682    2.311490    0.628297
H     -4.957975    0.309136   -0.018479
H     -0.709054   -2.337425   -2.451914
