23

C     -1.113553   -1.559567    0.010731
C      0.074134   -1.812983    0.868702
C      1.159702   -0.974779    0.299794
C      0.425842    0.140288   -0.470359
C     -1.912317    0.452670   -1.204460
C      2.613253    1.073303    0.373350
C     -1.054459   -0.059289   -0.143318
C      1.303258    0.445057    0.676803
F      0.681400    0.920048    1.807042
N     -1.351130    0.569111    1.152435
O      0.158391   -2.554765    1.844095
O     -1.803240    0.020764   -2.368918
O     -2.854152    1.419727   -0.938063
O      2.920916    2.166229    0.900126
O      3.521330    0.457654   -0.502534
H     -0.910687   -2.044850   -0.955800
H     -2.053770   -1.903712    0.483901
H      1.965676   -1.519221   -0.233792
H      0.716764    0.331229   -1.521658
H     -1.894012    1.459869    0.962039
H     -1.963000   -0.108387    1.684835
H     -3.062656    2.184479   -1.579387
H      4.432312    0.897122   -0.625138
