24

C     -1.508957   -0.908308    0.382571
C      1.434098   -0.801447   -0.125990
C      0.499461    0.295696   -0.299595
C      0.915912    0.004861    1.063516
C      2.883282   -0.529877   -0.393978
C     -1.594491    1.452378   -0.159011
C     -0.963359    0.169869   -0.500860
N     -1.328296   -0.179587   -1.863799
O      3.699723   -1.436334   -0.695758
O      3.410138    0.766013   -0.320995
O     -1.421485    1.953500    0.966903
O     -2.376378    2.102473   -1.078255
O     -0.014047   -2.165045    2.279589
O     -1.082585   -0.003095    2.912570
S     -0.472829   -0.822200    1.846435
H     -2.531002   -0.636114    0.710427
H     -1.490670   -1.913983   -0.068407
H      1.176451   -1.857734   -0.221731
H      0.917562    1.246991   -0.740878
H      1.601835    0.586620    1.669761
H     -2.390499   -0.161602   -1.890030
H     -1.085543   -1.187775   -2.085405
H      4.393232    0.966365   -0.461413
H     -2.671553    3.058335   -0.987398
