24

C     -1.449356   -0.836685    0.898957
C      1.506307   -0.196045    0.336476
C      0.303639    0.103035   -0.534824
C      0.804426   -1.238184   -0.476188
C      2.826135    0.298755   -0.066998
C     -2.055952    0.826915   -0.714397
C     -0.947939    0.371233    0.165265
N     -0.707616    1.484148    1.099910
O      3.676410    0.600159    0.805546
O      3.215798    0.463321   -1.391710
O     -2.495829    0.084172   -1.630638
O     -2.653152    2.069064   -0.576743
O     -1.150230   -3.100457   -0.573740
O      0.214058   -2.905262    1.503099
S     -0.426557   -2.209748    0.363662
H     -1.305201   -0.718422    1.991593
H     -2.493193   -1.108910    0.654133
H      1.342340   -0.273550    1.434473
H      0.522619    0.709973   -1.438643
H      1.359006   -1.661696   -1.316943
H     -0.562409    2.325754    0.464814
H      0.147704    1.364830    1.646337
H      3.868614    1.225430   -1.578382
H     -3.539623    2.322171   -0.986242
