42

C     -3.038045    0.285980    1.589685
C      1.632929   -2.163394   -0.052667
C      4.192039    1.293021   -0.200680
C      0.298786   -2.001813    0.563364
C      2.719181    1.508326   -0.429518
C     -2.507930   -1.493512   -0.423088
C     -3.629818   -0.689339   -1.109380
C     -0.065936    1.777420   -0.007659
C     -1.460985    1.852755    0.494914
C      3.759577   -1.092284    0.488860
C      2.488987   -0.993833    0.150864
C      4.510935    0.145621    0.662117
C      1.892292    0.338764   -0.030252
C      0.614666    0.468600    0.162279
C     -0.301709   -0.661508    0.566920
C     -1.499630   -0.446208   -0.250945
C     -3.360581    0.751891   -0.738719
C     -2.332183    0.684319    0.316356
O      5.403643    0.201217    1.535047
O     -3.914717    1.678955   -1.249604
H     -3.568019    1.220523    1.940545
H     -3.842816   -0.440596    1.393846
H     -2.383734   -0.009967    2.405344
H      2.155055   -3.039078    0.417728
H      1.516915   -2.429241   -1.124732
H      4.764488    1.209394   -1.171802
H      4.638007    2.202146    0.282308
H      0.329558   -2.469810    1.593258
H     -0.410104   -2.688892    0.009214
H      2.581070    1.592512   -1.548134
H      2.425588    2.446098    0.045263
H     -2.208481   -2.292766   -1.131776
H     -2.872021   -1.983000    0.480153
H     -4.617768   -1.019723   -0.798273
H     -3.445010   -0.741965   -2.202442
H     -0.054110    2.103461   -1.083090
H      0.492964    2.609695    0.519362
H     -1.439225    2.130259    1.589492
H     -1.941315    2.727563    0.006215
H      4.206584   -2.068130    0.628666
H     -0.537199   -0.401125    1.644928
H     -1.191929   -0.102338   -1.280781
