85

C     -7.650272    3.314538    2.987795
C     -6.620212   -1.577264   -2.222848
C     -9.662619    1.939162   -1.116160
C      9.111785    2.189053   -0.175634
C      7.867426    2.737927    0.108215
C      9.177741    0.842298   -0.365777
C      6.774014    1.914519    0.184909
C      0.474942   -2.134718    1.554491
C      0.961516   -3.428510    1.655774
C      0.925210    0.822475    0.735457
C      4.795200   -0.086680    1.159420
C      5.009008   -0.306094   -1.296622
C      2.139193    0.768181   -0.132519
C      3.500039   -0.845445    1.015935
C      3.587715   -0.682927   -1.368260
C     -2.688441    0.507125   -0.923760
C     -1.594033   -0.402677   -1.510580
C     -6.009889    1.601372    1.549818
C     -5.686468    0.031845   -0.142730
C      0.638210   -2.163798   -0.810309
C      8.102324   -1.477204   -0.482569
C     -1.369861    0.035441    1.153116
C      8.060065   -0.007555   -0.287049
C     -5.112262    0.770007    0.870445
C      0.310372   -1.496320    0.356243
C      6.869217    0.516286   -0.015419
C      1.289518   -4.091473    0.495121
C      1.125636   -3.457317   -0.733830
C     -7.350969    1.678258    1.230936
C     -7.035266    0.095117   -0.481200
C     -7.876624    0.919155    0.203639
C     -3.745750    0.621219    1.315303
C     -0.188282   -0.098585    0.277161
C      5.697797   -0.397219    0.021634
Cl     1.927267   -5.748743    0.561963
Cl     1.549559   -4.365895   -2.191847
N      2.799620   -0.467013   -0.185488
N     -2.621155    0.410028    0.494924
O     -3.566902    0.691122    2.593668
O      5.889794   -2.914155   -0.831905
O     -8.160766    2.531294    1.956277
O     -7.529413   -0.696683   -1.530967
O     -9.235866    1.000746   -0.115292
O     -0.410337    0.217490   -1.075389
S      6.525599   -2.004336    0.249400
Cl     0.683425    0.000000    0.000000
H     -6.777438    3.935725    2.679408
H     -7.315852    2.666639    3.826666
H     -8.486713    3.973231    3.346978
H     -6.148468   -2.254538   -1.464023
H     -5.809765   -1.017666   -2.718291
H     -7.197044   -2.210547   -2.913090
H     -8.775961    2.237790   -1.728425
H    -10.382765    1.398743   -1.770419
H    -10.111308    2.820147   -0.637263
H      9.974385    2.870202   -0.228406
H      7.709761    3.802786    0.273092
H     10.155084    0.434242   -0.586651
H      5.828942    2.379249    0.409169
H      0.216866   -1.592535    2.464575
H      1.078158   -3.896360    2.619960
H      0.522278    1.861012    0.735607
H      1.137781    0.497470    1.793128
H      4.660861    0.989249    1.253824
H      5.281233   -0.488762    2.085999
H      5.215053    0.699970   -1.738284
H      5.584465   -1.000440   -1.990305
H      1.843203    1.038009   -1.184597
H      2.864139    1.576969    0.157192
H      2.872316   -0.609118    1.886202
H      3.759232   -1.922617    0.912403
H      3.371156   -1.719376   -1.735220
H      3.118148   -0.027587   -2.160980
H     -3.612247    0.437949   -1.447847
H     -2.342983    1.595845   -1.138578
H     -1.741867   -1.394286   -1.080132
H     -1.637441   -0.311128   -2.594280
H     -5.636174    2.212197    2.354437
H     -5.115768   -0.691042   -0.697969
H      0.519003   -1.695814   -1.780908
H      8.906142   -1.932823    0.159825
H      8.266233   -1.814530   -1.492603
H     -1.159299    0.769122    1.963952
H     -1.626724   -0.921418    1.706135
H     -0.683425    0.000000    0.000000
