85

C     -6.162998    0.176717    2.937568
C     -6.649872    3.479599   -3.461698
C     -7.896184    3.984552    0.926829
C      8.661082    3.325875    1.458475
C      7.657016    3.010795    2.336525
C      8.605776    2.842344    0.188912
C      6.607738    2.208984    1.917225
C     -0.036405   -3.899117    0.968248
C      0.242040   -5.256669    1.113015
C      0.759564   -1.152586   -0.834272
C      4.087519    1.491637    0.368369
C      5.417934   -0.523852    0.627749
C      1.817495   -1.258382    0.198909
C      3.054087    0.733398   -0.416560
C      4.057176   -1.070464    0.827656
C     -3.205343   -1.945595    0.175943
C     -2.175311   -1.702170    1.277291
C     -5.125327    0.569732    0.384973
C     -5.236471    1.621996   -1.720444
C     -0.160084   -4.107469   -1.380953
C      7.436368    1.471976   -1.607927
C     -1.527195   -1.604362   -1.518603
C      7.526164    2.018638   -0.241695
C     -4.555358    0.730071   -0.853645
C     -0.238534   -3.312612   -0.260485
C      6.540883    1.704966    0.604864
C      0.317167   -6.036466   -0.027234
C      0.117370   -5.474664   -1.270642
C     -6.273501    1.214952    0.775098
C     -6.378014    2.282632   -1.371749
C     -6.903318    2.071729   -0.102510
C     -3.416442    0.031696   -1.375401
C     -0.535588   -1.839974   -0.394572
C      5.449930    0.864665    0.088686
Cl     0.683132   -7.739820    0.174211
Cl     0.216612   -6.509368   -2.675011
N      3.097770   -0.678114   -0.209727
N     -2.807530   -1.121124   -0.906065
O     -2.894532    0.576403   -2.448527
O      5.829684   -0.579400   -2.132862
O     -6.832894    1.032759    2.053355
O     -7.071079    3.155978   -2.166411
O     -8.067318    2.711929    0.311843
O     -0.957260   -1.360530    0.789572
S      5.721822    0.916885   -1.698955
Cl     0.684928    0.000000    0.000000
H     -6.180675   -0.877104    2.623153
H     -5.076105    0.505039    2.995276
H     -6.531208    0.287848    3.984359
H     -6.995721    2.802597   -4.252905
H     -6.915122    4.542205   -3.700717
H     -5.528273    3.472920   -3.497513
H     -7.262114    4.631726    0.305655
H     -8.875792    4.520719    1.043902
H     -7.419642    3.914944    1.918106
H      9.511525    3.952785    1.738397
H      7.729686    3.410658    3.350609
H      9.402417    3.098697   -0.497786
H      5.827784    1.968181    2.614941
H     -0.072717   -3.342934    1.886737
H      0.394537   -5.668285    2.097580
H      0.490935   -0.130523   -1.104051
H      1.086066   -1.695289   -1.752337
H      4.066602    2.548075    0.020297
H      3.917176    1.439092    1.457262
H      6.088951   -1.161619    0.027481
H      5.902159   -0.485430    1.647035
H      1.477642   -0.651915    1.087367
H      2.018720   -2.267826    0.552697
H      2.072712    1.194978   -0.193850
H      3.316799    0.888062   -1.512847
H      4.109661   -2.177962    0.799449
H      3.665031   -0.791697    1.836559
H     -4.226241   -2.016398    0.472383
H     -2.990579   -3.029467   -0.206456
H     -2.261833   -2.566803    1.940554
H     -2.548796   -0.826518    1.856939
H     -4.634754   -0.057141    1.104836
H     -4.834760    1.788589   -2.707456
H     -0.291239   -3.759113   -2.389166
H      8.174824    0.641151   -1.648693
H      7.654412    2.250630   -2.375288
H     -1.827921   -2.564805   -1.983054
H     -1.231917   -0.846236   -2.223372
H     -0.684928    0.000000    0.000000
