71

C     -2.251249    2.991642    0.640902
C     -2.095356    0.642125    1.373615
C     -3.363930   -2.236150   -3.892939
C      7.109252   -1.711634    2.601149
C      5.404704   -1.705676    0.871418
C      8.323883   -1.268942    3.084247
C      4.927025   -1.267753   -0.345404
C     -5.877418   -1.769736   -0.632188
C      3.153680    1.208218   -0.675894
C     -5.011717   -1.864321   -1.702759
C      2.125011    1.692689    0.140055
C     -4.934662    0.349782   -0.159618
C     -3.133598    1.361965   -1.495087
C      8.571235    0.040725    1.135879
C      1.559284    0.077681   -1.992819
C      5.260843    0.159320   -2.406111
C      6.614656   -1.279753    1.377429
C     -4.054678    0.284141   -1.225396
C      9.074835   -0.379433    2.349136
C     -5.826460   -0.641948    0.139346
C      5.689762   -0.378388   -1.068717
C      2.896783    0.394587   -1.754399
C      0.552748    0.557902   -1.185940
C     -1.731209    1.291408   -1.028878
C      7.353883   -0.390929    0.631685
C     -4.098976   -0.840615   -2.004292
C      0.800802    1.372008   -0.105345
C     -0.880372    0.173857   -1.499312
C     -1.554632    1.639393    0.436249
C     -5.189996   -1.148854    3.614893
Cl    10.637696    0.212119    2.930989
F     -3.996267   -1.286747    2.988547
F     -4.915596   -0.701073    4.910787
F     -5.731903   -2.412749    3.771058
N      6.877693    0.026031   -0.548946
N     -6.709823   -0.515118    1.232061
O     -1.164672   -1.067635   -0.949371
O     -5.729934    1.346691    2.872148
O     -7.566275   -0.007320    3.649451
O     -3.298099   -1.068275   -3.107591
O      3.892458   -0.100487   -2.578418
O     -0.204979    1.860160    0.712208
S     -6.318885   -0.045860    2.815448
H     -3.277084    2.859576    1.013058
H     -2.179096    3.632272   -0.249260
H     -1.696133    3.481209    1.489102
H     -2.340430   -0.343939    0.940528
H     -3.010151    1.015935    1.900426
H     -1.369348    0.418103    2.210477
H     -4.300287   -2.335843   -4.465536
H     -3.301687   -3.161727   -3.257235
H     -2.536620   -2.313886   -4.610538
H      6.487969   -2.410704    3.146451
H      4.838010   -2.410514    1.482246
H      8.689253   -1.618090    4.039025
H      3.988026   -1.586648   -0.757398
H     -6.590749   -2.579730   -0.404793
H      4.165768    1.492092   -0.443110
H     -5.060685   -2.763630   -2.307349
H      2.378354    2.336749    0.985411
H     -4.917366    1.235390    0.470972
H     -3.525071    2.364195   -1.107578
H     -3.070591    1.590038   -2.616378
H      9.164066    0.741949    0.557038
H      1.359760   -0.556171   -2.834233
H      5.883751   -0.197205   -3.224344
H      5.377361    1.278586   -2.369054
H     -1.242610    2.213357   -1.525909
H     -0.970526    0.087377   -2.599083
H     -7.735090   -0.744732    1.019193
H     -0.394342   -1.349768   -0.401405
