67

C      6.714031   -2.160020   -1.929311
C     -3.649034   -4.217647   -1.281345
C     -6.805632    1.772138   -1.593879
C     -2.183977    4.748090   -0.574510
C      5.346907   -0.114293   -1.421676
C      6.942886   -0.783324    0.159777
C      0.693092    1.685691    0.706820
C      0.853354   -0.086622    2.200720
C      1.914306    2.149640    1.173663
C      2.055974    0.373711    2.654934
C      4.981712    0.952315   -0.628637
C      6.587338    0.278809    0.962417
C     -2.268310   -3.402484    1.341965
C     -1.671391   -3.828672    0.047226
C     -4.518807    0.571634   -0.586427
C     -2.242088    2.025721   -0.078263
C     -2.668742   -2.054468   -1.196552
C      6.330297   -1.007015   -1.054735
C      0.119032    0.574164    1.190591
C      2.637891    1.519663    2.156192
C      5.599646    1.168275    0.584508
C     -3.417007   -0.065620   -0.092142
C     -2.257693    0.662676    0.170474
C     -3.423874   -1.571414    0.044135
C     -2.638843   -1.928754    1.247364
C     -4.495797    1.930838   -0.833703
C     -3.358805    2.654072   -0.580673
C     -1.208733    0.034971    0.927231
N     -1.452305   -1.172495    1.354167
N      3.892059    1.979366    2.647348
N     -2.453088   -3.457391   -1.092129
O      6.353652    2.862742    2.426480
O      4.726944    3.702231    0.785000
O     -5.636854    2.518032   -1.334047
O     -3.345887    3.999354   -0.831472
S      5.149853    2.519070    1.605244
H      6.473946   -3.128416   -1.445869
H      6.148055   -2.051589   -2.874045
H      7.785379   -2.103463   -2.195238
H     -4.474916   -3.617989   -1.724104
H     -4.026599   -4.649272   -0.333963
H     -3.414619   -5.106407   -1.932415
H     -6.620549    1.113872   -2.459485
H     -7.665954    2.434328   -1.844079
H     -7.094879    1.119301   -0.739448
H     -1.799894    4.597914    0.445165
H     -2.410580    5.837990   -0.696738
H     -1.409772    4.398740   -1.290885
H      4.854660   -0.279784   -2.379162
H      7.720805   -1.470981    0.472181
H      0.269235    2.232937   -0.160410
H      0.441252   -0.998669    2.633327
H      2.344320    3.068826    0.748902
H      2.616505   -0.150103    3.442365
H      4.195116    1.649519   -0.944284
H      7.073909    0.457929    1.929691
H     -1.472483   -3.461809    2.127359
H     -3.103669   -4.013036    1.694949
H     -0.669782   -3.338117   -0.057594
H     -1.466657   -4.918757   -0.010642
H     -5.411301   -0.035720   -0.775922
H     -1.386632    2.584553    0.197836
H     -1.707967   -1.504287   -1.204172
H     -3.302553   -1.846509   -2.076816
H     -4.461620   -1.938121    0.044468
H     -3.317006   -1.719732    2.168335
H      4.092142    2.003869    3.690865
