65

C     -1.427348   -2.106386   -0.031117
C     -7.525286    1.469838    0.698367
C     -3.427115    1.208274    0.321665
C     -3.608387   -0.448292   -1.396013
C      3.199299   -1.685731   -0.301774
C     -4.795715    1.261571    0.411132
C     -4.986841   -0.361304   -1.270982
C      4.040828   -1.476576   -1.379011
C     -1.348870    0.308757   -0.651873
C      4.175869    0.164984    0.779321
C      0.949260   -1.491308    1.596961
C      5.894528    2.424916    0.580715
C     -0.921119   -0.775021    0.351374
C     -2.825971    0.340286   -0.596719
C      3.232045   -0.878899    0.810967
C     -5.622378    0.481587   -0.378837
C      5.012135    0.402227   -0.247292
C      4.944493   -0.436903   -1.354459
C      2.343203   -1.020099    1.990322
N      0.471397   -0.649903    0.542253
N      5.973458    1.475509   -0.275352
O      6.866675    3.433150    0.488482
O      5.810347   -0.194046   -2.422489
O      2.129902    0.329382    2.430631
O     -7.003147    0.565037   -0.256025
C     -0.839367   -0.515974   -0.264191
C      0.633978   -0.675470   -0.586574
C     -1.225938    0.865140    0.015963
C      1.509906   -0.471829    0.561292
O     -1.197741   -1.379251    0.771477
O      0.925671    0.205767   -1.619247
O     -0.982016    1.773237   -0.804654
O     -1.866744    1.181498    1.194193
O      1.393217   -1.177427    1.589119
O      2.485737    0.504546    0.535678
H     -2.495259   -2.263923    0.233524
H     -1.311062   -2.318093   -1.102659
H     -0.870685   -2.894735    0.526639
H     -8.625877    1.348283    0.698296
H     -7.180596    2.492198    0.435283
H     -7.067829    1.216038    1.678971
H     -2.779530    1.808440    0.931113
H     -3.145423   -1.136619   -2.120928
H      2.498255   -2.513954   -0.348988
H     -5.266299    1.930048    1.117207
H     -5.606154   -0.982158   -1.896853
H      4.011060   -2.113447   -2.252502
H     -1.007898    0.026502   -1.654920
H     -0.952737    1.259658   -0.268098
H      4.195806    0.797171    1.664201
H      0.973524   -2.548253    1.262160
H      0.327656   -1.352773    2.506523
H      5.170261    2.528249    1.353407
H     -1.448891   -0.497551    1.317556
H      2.790753   -1.637225    2.768231
H      1.030613   -0.630201   -0.321647
H      7.089983    3.846214   -0.421156
H      6.465451    0.566459   -2.387611
H      1.653616    0.728621    1.643388
H     -1.382647   -0.823785   -1.205764
H      0.728654   -1.708377   -1.034142
H     -2.123691   -1.689163    0.689188
H      1.586321    0.888724   -1.327356
H     -2.442228    2.033134    1.272255
H      2.796886    0.989229    1.366643
