31

C     -0.203231   -1.361492    1.036894
C     -1.769085   -1.984090   -0.708397
C      3.713502    0.171660   -0.014089
C      3.226508   -0.695731   -0.965867
C      2.869356    1.020956    0.654937
C      1.876935   -0.687047   -1.225902
C      1.518749    1.003162    0.368600
C     -2.327924   -0.191767    0.809887
C      0.995697    0.149453   -0.576873
C     -0.481279    0.149615   -0.870577
C     -1.199938   -0.764550    0.032318
O     -1.106487    3.565070    0.822429
O     -3.147744    2.470217   -0.317074
O     -2.006498    0.991958    1.468857
O     -0.886147    1.427837   -0.974252
P     -1.756524    2.113773    0.218450
H      0.162257   -0.613444    1.746248
H      0.617868   -1.893122    0.516368
H     -0.720107   -2.153588    1.651384
H     -1.866767   -2.848998   -0.031231
H     -1.100869   -2.226964   -1.554429
H     -2.758507   -1.667786   -1.130811
H      4.758770    0.180692    0.202839
H      3.879622   -1.372084   -1.502446
H      3.267260    1.691092    1.394572
H      1.476455   -1.372648   -1.981295
H      0.906112    1.694874    0.928434
H     -3.137764    0.081780    0.076871
H     -2.747790   -0.950350    1.465054
H     -0.544861   -0.286216   -1.915720
H     -1.507571    4.357737    0.374821
