70

C     -6.290527    3.372111   -1.717780
C     -4.932672    0.148327    2.188732
C     -1.653261    2.063332   -0.443466
C      3.795154    0.841938   -1.372565
C     -6.357563    2.311333   -0.945075
C      1.116081   -0.694743    3.238217
C      0.342734   -3.880663   -2.135530
C      8.132940    0.240562   -0.730485
C      0.103961   -0.878428    2.291839
C      0.258390   -2.609168   -1.616050
C      2.368218   -0.292454    2.868033
C      8.698142    1.402758   -0.233289
C      6.774030    0.014354   -0.691370
C     -0.496453   -4.853208   -1.665425
C     -5.343894    2.107419    0.119333
C      1.625266   -0.249961    0.610796
C     -1.469391   -3.257739   -0.180828
C      6.470816    2.111033    0.349891
C     -3.739747    0.892932   -1.192448
C     -3.018328   -0.711828    0.856187
C     -3.891056    0.542458    1.143176
C     -2.295898    0.765078   -0.856143
C      0.315758   -0.666929    0.964157
C     -0.643720   -2.259592   -0.629522
C      2.640081   -0.059823    1.511293
C      7.842483    2.337060    0.309172
C      5.934523    0.957535   -0.146684
C     -1.400922   -4.555469   -0.693461
C     -0.712625   -0.851856   -0.073205
C      3.964098    0.343250    1.115731
F      8.379209    3.477075    0.798495
N      4.493773    0.692100   -0.119716
N     -4.607391    0.894713   -0.049121
N     -1.979484   -0.330284    0.052441
O     -2.236237   -5.562929   -0.238506
O      4.816906    0.386120    2.108098
H     -5.523706    4.124586   -1.623112
H     -7.029508    3.513597   -2.492447
H     -5.195105    1.061458    2.769890
H     -4.569023   -0.680690    2.827399
H     -5.865542   -0.198193    1.675533
H     -1.161899    2.000553    0.567878
H     -2.398144    2.886084   -0.475798
H     -0.836536    2.384006   -1.126439
H      2.972497    1.597765   -1.341295
H      3.542255   -0.102456   -1.879155
H      4.522417    1.331831   -2.111731
H     -7.136052    1.586188   -1.071530
H      0.911567   -0.875875    4.302811
H      1.067974   -4.109655   -2.911037
H      8.804300   -0.508304   -1.163255
H     -0.830888   -1.200663    2.653631
H      0.939405   -1.869659   -2.015599
H      3.149276   -0.149770    3.615342
H      9.771498    1.543215   -0.279615
H      6.340354   -0.914266   -1.091113
H     -0.390605   -5.847357   -2.109617
H     -4.675128    2.983460    0.235546
H     -5.923400    2.030698    1.086634
H      1.755722   -0.102462   -0.448392
H     -2.179603   -3.066433    0.570007
H      5.793587    2.845548    0.777048
H     -4.036898    0.024096   -1.832081
H     -3.863430    1.805844   -1.804179
H     -3.772028   -1.323192    0.231970
H     -2.902326   -1.140712    1.835121
H     -3.275636    1.382967    1.499152
H     -1.783265    0.469523   -1.820026
H     -0.300638   -0.264745   -0.977672
H     -2.924887   -5.403395    0.477309
