68

C     -2.136840   -2.664459   -0.418510
C     -3.623962   -1.590702    1.158751
C     -3.123219    1.953452   -1.546598
C     -4.636163    0.101135   -1.650250
C      1.472161    4.378587   -0.223385
C      1.765544    3.339882   -1.110632
C      1.014523    4.073783    1.018849
C      1.595966    2.030608   -0.737213
C      0.847760    2.761886    1.383542
C      4.577579   -1.917476    0.955439
C      4.232539   -1.139631    2.032440
C     -0.131447   -0.365817    0.050453
C     -1.458359    0.310034    0.229679
C      2.600756   -1.273592   -0.120009
C      4.175553   -2.846397   -1.275963
C     -3.030706   -1.485810   -0.241940
C     -3.588320    0.735489   -0.775534
C      3.753160   -1.989056   -0.139326
C      1.127613    1.734169    0.536088
C      0.945271    0.301238    0.900506
C      2.188695   -0.460326    0.946280
C      3.026197   -0.405715    2.025457
N     -2.524113   -0.205639   -0.537831
O      4.992810   -2.151561   -2.172797
O      2.751731    0.344388    3.139656
C     -0.384449    0.449343    0.319890
C      0.367843   -0.474835   -0.254906
C     -1.827542    0.266449    0.512716
C      1.815901   -0.276438   -0.441476
O     -2.507865    1.155613    1.057371
O     -2.478654   -0.887824    0.101141
O      2.483226   -1.182192   -0.991332
O      2.468607    0.854390   -0.041128
H     -1.753960   -3.096542    0.553386
H     -1.375988   -2.579169   -1.200150
H     -2.790065   -3.530075   -0.788655
H     -4.514287   -0.967651    1.291492
H     -3.964196   -2.660172    1.255071
H     -2.893911   -1.429299    1.950447
H     -2.545490    2.659303   -0.956908
H     -4.061844    2.483513   -1.863061
H     -2.641678    1.609133   -2.486035
H     -5.428427   -0.444203   -1.099301
H     -4.193140   -0.484755   -2.480494
H     -5.182825    0.946529   -2.149700
H      1.606922    5.413566   -0.520306
H      2.125173    3.658678   -2.081153
H      0.761936    4.826876    1.772053
H      1.835860    1.258920   -1.456046
H      0.470318    2.529070    2.392625
H      5.512718   -2.475027    0.984229
H      4.895349   -1.096686    2.881902
H      0.168536   -0.369647   -1.004529
H     -0.170592   -1.413362    0.411590
H     -1.733541    0.121858    1.316509
H     -1.366179    1.419541    0.202073
H      1.958402   -1.329150   -0.975248
H      3.293308   -3.172625   -1.865935
H      4.771712   -3.690868   -0.873327
H     -3.916477   -1.666491   -0.919515
H     -4.081801    1.102772    0.141068
H      0.503597    0.295781    1.940374
H      5.964596   -2.367235   -2.009301
H      1.931247    0.878947    3.237142
H      0.093620    1.342093    0.643110
H     -0.125626   -1.379408   -0.580671
H     -3.388625   -0.825284   -0.320290
H      3.483564    0.958093   -0.004426
