58

C     -2.402272    1.201226    2.294355
C     -3.344124    1.063942   -1.859090
C      3.298879   -4.460946   -0.141643
C     -0.155448    5.069281   -0.418381
C      2.112667   -4.932218    0.377354
C     -1.385350    4.732853    0.102533
C      3.464050   -3.092750   -0.407135
C      0.826224    4.115827   -0.603791
C      1.061424   -4.060546    0.646034
C     -1.678435    3.425094    0.458477
C      3.618546    2.311701   -1.334962
C      2.436309   -2.254281   -0.142456
C      0.527517    2.821936   -0.248113
C      2.579848    1.420786   -0.787635
C      1.237311   -2.719791    0.380538
C     -0.693323    2.467348    0.274264
C      1.299719    1.677782   -0.339756
C      2.258353   -0.891909   -0.277398
C      3.069348    0.119730   -0.756959
C      0.972381   -0.622108    0.170915
C      0.512661    0.670899    0.133982
C     -3.266290   -1.385957    0.305209
C     -1.973429   -2.133295   -0.058274
C     -2.892776    0.096212    0.145422
C      4.417424    0.195834   -1.285566
C     -1.007262   -1.830236    1.073279
C     -1.812945    0.382659    1.130802
N      4.707490    1.428698   -1.603407
N      0.367253   -1.740148    0.564561
N     -0.708928    1.125497    0.520196
O     -3.645607   -1.677987    1.598519
O     -2.309898   -3.481273   -0.109310
O      5.349476   -0.795988   -1.475707
O     -2.476993    0.215602   -1.190008
O     -1.348202   -0.750908    1.805994
H     -2.450594    0.531206    3.219257
H     -3.447442    1.473716    2.144024
H     -1.731012    2.011582    2.617782
H     -3.398385    2.079411   -1.444913
H     -4.390035    0.656695   -1.811371
H     -3.042801    1.107129   -2.926510
H      4.126466   -5.104021   -0.359566
H      0.074830    6.072572   -0.693174
H      1.990401   -5.977034    0.578642
H     -2.173957    5.454934    0.259454
H      4.391692   -2.775570   -0.804933
H      1.807501    4.380648   -1.019233
H      0.122321   -4.424726    1.055583
H     -2.637821    3.153767    0.841406
H      3.280155    2.885052   -2.224689
H      3.963640    3.074982   -0.579798
H     -4.043973   -1.676737   -0.420334
H     -1.626607   -1.749576   -1.028783
H     -3.813638    0.713707    0.339488
H     -1.022933   -2.722490    1.734061
H     -3.076465   -2.379878    2.003388
H     -2.248207   -3.827283    0.818614
H      6.331267   -0.670647   -1.241239
