40

C     -3.957217    0.962471   -1.271171
C     -0.079088   -2.952640   -0.007713
C     -0.871006   -4.075302    0.177658
C     -3.197356    0.131246   -0.468785
C     -4.000150    2.578342    0.485644
C      4.757215    1.959434   -0.224603
C      3.369844    0.318235   -1.479905
C     -4.366821    2.201291   -0.795391
C      4.130802    1.636148   -1.549635
C     -0.449922   -1.714977    0.458813
C     -2.063095   -3.930904    0.851708
C     -3.235847    1.743493    1.294141
C     -2.835839    0.514671    0.807656
C     -2.452563   -2.714067    1.323800
C     -1.644322   -1.606573    1.126356
C      0.395132   -0.547325    0.254498
F     -2.830787   -5.040695    1.026793
F     -2.862996    2.080397    2.543343
F     -3.631104   -2.596070    1.984856
I     -5.525305    3.506457   -1.975180
N     -2.052517   -0.359446    1.615039
N      1.503893   -0.679930   -0.372100
O      5.580482    0.888873    0.168141
O      5.159323    1.447671   -2.470152
O     -0.013169    0.687956    0.740786
O      2.298951    0.405888   -0.567074
H     -4.244030    0.667407   -2.273357
H      0.854202   -3.055646   -0.533263
H     -0.549880   -5.054909   -0.206487
H     -2.895668   -0.832538   -0.878209
H     -4.313341    3.548982    0.876333
H      4.003855    2.112820    0.569291
H      5.330814    2.889146   -0.319325
H      4.109750   -0.453853   -1.189130
H      2.963417    0.053421   -2.463094
H      3.470916    2.454270   -1.876753
H     -1.780567   -0.068010    2.578772
H      6.294277    0.721674   -0.483198
H      4.987632    0.695109   -3.065112
H      0.642084    1.477481    0.727925
