69

C      2.462178    2.704213    4.063099
C     -4.732917    3.692078   -1.517166
C     -1.331250    4.019942   -4.318219
C      1.447285   -1.985673    3.673702
C      2.858660    0.094904   -0.296939
C      3.220557    1.630251    4.130296
C     -3.286913    4.114617   -1.652097
C     -2.523171    3.207749   -3.796821
C      0.022775   -0.552164   -3.505574
C     -2.374343   -3.753072    1.632636
C      0.410386   -1.332761   -2.461484
C     -1.428419   -2.774249    1.300294
C     -0.736244    0.572849   -3.263899
C     -2.369377   -4.954905    0.963395
C      3.587794    0.895113    2.903819
C     -0.676793    0.073795   -0.943842
C     -0.518032   -4.188050   -0.323889
C      3.535833   -1.200169    1.737808
C      0.928254   -0.318828    1.855939
C      1.715221   -0.586909    3.174507
C      2.672460   -1.104813    0.546629
C      0.065391   -1.031780   -1.141223
C     -0.479021   -2.937790    0.332167
C     -1.104500    0.913521   -1.992023
C     -1.434269   -5.165965   -0.017933
C      0.515104   -1.919834   -0.015639
C     -1.916619    2.060169   -1.634659
N     -2.515205    3.053250   -2.382197
N      3.132706   -0.478302    2.905860
N      1.266769   -1.304646    0.997275
O     -1.428754   -6.369776   -0.688948
O     -2.135337    2.193902   -0.345486
H      2.179151    3.264833    4.960752
H      2.110113    3.039028    3.096054
H     -5.324370    4.637826   -1.413867
H     -5.105634    3.261187   -2.492517
H     -4.915892    2.990717   -0.683445
H     -1.310074    4.976480   -3.729566
H     -1.435165    4.185914   -5.392625
H     -0.419613    3.481010   -4.011658
H      2.401530   -2.410323    4.040015
H      1.083231   -2.666952    2.867461
H      0.764186   -1.987587    4.547302
H      2.944471   -0.231498   -1.384351
H      3.850089    0.590234   -0.095748
H      2.073769    0.843691   -0.301222
H      3.567218    1.301218    5.099027
H     -2.824956    4.291646   -0.661967
H     -3.262299    5.063054   -2.209616
H     -2.756174    2.355659   -4.417104
H     -3.396794    3.936233   -4.045170
H      0.306722   -0.815881   -4.505880
H     -3.093302   -3.573704    2.393927
H      1.015548   -2.236226   -2.651216
H     -1.468439   -1.853542    1.841885
H     -1.030947    1.205393   -4.091916
H     -3.122012   -5.682976    1.255242
H      3.200494    1.456802    2.022793
H      4.704710    0.850080    2.859631
H     -0.954760    0.302427    0.095242
H      0.214085   -4.363880   -1.100257
H      4.561448   -0.841278    1.460803
H      3.689506   -2.296202    1.961897
H      1.379346    0.678765    1.544509
H     -0.062133   -0.069974    2.195587
H      1.389368    0.145961    3.908528
H      2.835052   -2.017790   -0.096698
H      1.327185   -2.552944   -0.524201
H     -1.964864   -6.524070   -1.536816
