45

C     -4.720381   -2.658161   -0.132781
C     -3.972655   -3.738594    0.314687
C     -4.123742   -1.423914   -0.197574
C     -2.657049   -3.541448    0.679790
C      2.727000    0.874246    0.922856
C      4.040329    0.547069    0.680400
C      2.065495   -1.135673   -0.138034
C     -2.309785    1.281788   -0.167119
C      0.709440    3.914730   -0.796618
C      5.379128   -2.596351   -0.643007
C      1.697722    0.018797    0.508323
C     -2.795006   -1.222884    0.170789
C     -1.971420   -0.120371    0.202399
C     -2.064047   -2.297334    0.611890
C     -1.333926    2.253356    0.480171
C      4.383164   -0.624019    0.026788
C      3.393172   -1.486411   -0.393738
C      0.814813    2.415701   -0.684370
C     -0.734979   -0.511306    0.660592
C      0.338209    0.465048    0.799872
C     -1.533174    3.622057    0.040703
N     -0.626894    4.318002   -0.510413
N     -0.816550   -1.823480    0.900276
N     -0.022603    1.704461    0.190090
O      1.649439    1.810457   -1.373646
O     -2.786450    4.225165    0.226048
O      5.584989   -1.211566   -0.351530
O      3.995658   -2.571266   -1.013161
H     -5.746896   -2.810278   -0.418017
H     -4.443109   -4.722382    0.367905
H     -4.720399   -0.595034   -0.547939
H     -2.090946   -4.393118    1.025336
H      2.523173    1.790873    1.431268
H      4.879509    1.176721    0.981509
H      1.289169   -1.811496   -0.480457
H     -2.265948    1.401402   -1.259856
H     -3.317885    1.553898    0.181638
H      1.413000    4.417470   -0.095477
H      1.007648    4.197876   -1.818809
H      5.477563   -3.134320    0.315003
H      6.014781   -2.962080   -1.447725
H     -1.510599    2.150949    1.590150
H      0.351198    0.712710    1.929615
H     -0.095155   -2.499205    1.267568
H     -3.075000    5.037918   -0.301091
