50

C      3.111451   -4.494461    0.303615
C     -5.290868   -0.592084    2.067712
C     -3.947544   -0.729137    2.431638
C     -5.574447   -0.248132    0.748904
C     -1.958602    2.680586   -0.492800
C     -2.916496   -0.533292    1.507445
C     -4.547449   -0.058236   -0.143533
C     -0.697871    1.972480   -1.002639
C      4.930490   -0.704123   -0.106817
C      4.330012   -1.946768    0.023647
C     -3.052396    2.242967   -1.452747
C      2.789230    0.295729    0.122719
C      0.689664   -1.099240    0.272234
C     -3.199560   -0.194586    0.207602
C      2.169895   -0.908566    0.252117
C      4.163827    0.471933   -0.060810
C     -0.889784    0.463981   -0.633515
C      2.961597   -2.060586    0.203660
C     -2.240865    0.017706   -0.844313
C      5.189174    2.706471    0.558352
F      5.525590    3.814547   -0.251200
F      6.314538    2.373704    1.305763
F      4.230861    3.192787    1.451695
N     -2.830417    0.919666   -1.850809
N     -0.022049    0.128417    0.410518
O      2.397072   -3.306792    0.328160
O      4.664154    1.700003   -0.195647
H      2.530644   -5.242724    0.921570
H      4.140850   -4.455567    0.734892
H      3.230366   -4.932940   -0.734546
H     -6.100535   -0.749603    2.787321
H     -3.765911   -1.003114    3.472774
H     -6.617726   -0.130743    0.425929
H     -2.187896    2.446233    0.544240
H     -1.768940    3.764164   -0.611267
H     -1.914114   -0.667631    1.889298
H     -4.858101    0.209261   -1.163238
H      0.155795    2.387265   -0.475803
H     -0.710411    2.083997   -2.093264
H      5.982881   -0.578465   -0.265110
H      4.995456   -2.824880   -0.045306
H     -4.015708    2.502545   -1.015702
H     -2.928037    2.932993   -2.357960
H      2.194224    1.207661    0.157502
H      0.459185   -1.805366    1.097057
H      0.409684   -1.582337   -0.679256
H     -0.307283    0.007883   -1.581075
H     -2.245524   -0.993555   -1.432034
H     -3.426318    0.469216   -2.533476
H      0.448214    0.850731    0.914626
