50

C      2.345178   -2.975186   -0.560438
C      5.350641   -1.194560    0.905486
C     -1.094217   -2.987310    1.834232
C     -0.292357    0.086651   -2.746010
C      1.813991    1.293183   -2.633834
C      3.682316   -2.668888    0.008406
C     -3.523191    3.077162   -0.603534
C     -4.816721    2.239776    1.178851
C     -2.378450    3.085753   -1.337042
C     -4.917108    1.371953    2.242206
C      3.995456   -1.429825    0.341814
C     -0.658556   -1.583848    1.802641
C     -3.627031    2.211008    0.460261
C     -1.326286    2.210275   -0.993249
C     -3.837744    0.554938    2.501590
C     -1.417224    1.349829    0.056116
C     -2.599493    1.354172    0.798269
C     -0.327191    0.446568    0.413883
C      0.869790    0.564801   -0.523854
C      3.067470   -0.323048    0.173109
C      0.505384    0.970195   -1.896664
O     -0.244540   -0.986175    2.822224
O     -4.003207   -0.225484    3.505369
O      3.349791    0.838476    0.481694
O     -0.693454   -0.882064    0.644197
O     -2.726430    0.540982    1.815469
O      1.810899   -0.412414   -0.327996
O     -0.154067    2.220355   -1.746261
H      2.249594   -4.093567   -0.655151
H      1.548110   -2.681000    0.161838
H      2.235716   -2.524141   -1.552364
H      6.100037   -1.853620    0.423620
H      5.385362   -1.440863    1.998905
H      5.663945   -0.141595    0.820028
H     -1.453267   -3.287715    2.839956
H     -0.300536   -3.707253    1.545169
H     -1.931459   -3.161548    1.118100
H     -1.339247    0.468859   -2.828556
H     -0.423585   -0.951674   -2.381549
H      0.046944    0.100600   -3.821667
H      2.250128    2.231436   -2.266847
H      2.467264    0.414949   -2.455512
H      1.585999    1.304961   -3.712196
H      4.418242   -3.468272    0.155576
H     -4.342459    3.760866   -0.873589
H     -5.626736    2.921336    0.905185
H     -2.265213    3.754319   -2.177857
H     -5.822354    1.354879    2.833844
H     -0.011327    0.775611    1.463695
H      1.411190    1.476155   -0.157562
