48

C     -3.073915   -4.582295   -0.615420
C     -2.669730    4.673381    1.753829
C     -1.508593    5.335171    1.385385
C     -2.744727    3.339028    1.406839
C     -0.476119    4.731507    0.715534
C      2.349124    0.317180   -1.840639
C      3.728024    0.245726   -1.709495
C      2.165068   -0.458277    0.407624
C     -2.491857    0.250191    0.399303
C     -0.752144   -3.655889   -0.366804
C      5.689486   -1.085890    1.087289
C      1.549838   -0.036431   -0.776456
C     -1.731124    2.689307    0.732842
C     -1.565130    1.387855    0.279408
C     -0.594065    3.390967    0.387419
C     -1.804292   -1.078543    0.388981
C      4.332678   -0.173797   -0.531544
C      3.536028   -0.527608    0.533060
C     -0.029659   -2.390553   -0.646178
C     -0.353157    1.315105   -0.324390
C      0.094693    0.036643   -0.907191
C     -2.696802   -2.143146   -0.150264
N      0.215384    2.526531   -0.250040
N     -2.185746   -3.450728   -0.376094
N     -0.591851   -1.109641   -0.382603
O      1.128081   -2.498737   -1.137423
O     -3.904564   -1.944271   -0.422805
O      5.647270   -0.341562   -0.118926
O      4.370263   -0.904434    1.575234
H     -3.117148   -5.139671    0.366008
H     -2.663625   -5.270399   -1.361980
H     -4.085881   -4.266355   -0.906266
H     -3.471115    5.175006    2.283243
H     -1.445247    6.391550    1.658194
H     -3.620040    2.762571    1.662321
H      0.417189    5.276165    0.442269
H      1.942719    0.654014   -2.790736
H      4.402741    0.513597   -2.519403
H      1.542654   -0.739508    1.253210
H     -3.132975    0.357466    1.299400
H     -3.184189    0.298472   -0.475511
H     -0.468033   -4.119369    0.591158
H     -0.499018   -4.378486   -1.187520
H      5.794444   -2.171118    0.842395
H      6.452512   -0.724153    1.786361
H     -1.517146   -1.315019    1.444649
H     -0.147725    0.045276   -2.010210
H      1.167420    2.793170   -0.631333
