39

C      3.097528    2.472960   -0.933589
C      4.026588   -2.145189   -0.443283
C      4.025344    1.454401   -0.892845
C      4.514836   -0.875847   -0.647375
C      1.754427    2.208874   -0.775384
C      2.684118   -2.401971   -0.286048
C     -4.366744   -0.238633   -1.020404
C     -3.592897   -1.116234   -1.624178
C      3.596280    0.159460   -0.691076
C      1.294398    0.924342   -0.572030
C      1.743801   -1.368786   -0.327455
C     -4.074498    0.371179    0.291654
C     -2.357021   -1.544041   -0.995130
C      2.248888   -0.093217   -0.533896
C     -0.775586    0.833196    2.336485
C     -1.955239    1.165747    1.536209
C      0.037215   -0.317776    1.758123
C     -2.698782    0.120725    0.785281
C     -1.874083   -0.835048    0.210582
C     -0.410611   -0.553111    0.362237
O     -4.322945    1.759752    0.292758
O     -1.739259   -2.507401   -1.501848
O     -2.356108    2.307051    1.466295
O     -0.772246   -0.462462    2.846090
O     -0.030493    0.598909   -0.407860
O      0.387566   -1.621480   -0.169444
O     -2.599743   -1.207588    1.401457
H      3.467983    3.474698   -1.093263
H      4.710542   -2.964471   -0.404697
H      5.099126    1.655614   -1.018085
H      5.588110   -0.671450   -0.772969
H      1.013676    3.019779   -0.807626
H      2.298176   -3.408109   -0.124383
H     -5.275438    0.056324   -1.514964
H     -3.854156   -1.542958   -2.603328
H     -4.798327   -0.066664    1.035601
H     -0.174322    1.615758    2.791409
H      1.146001   -0.283171    1.876458
H     -4.706104    2.026839    1.170520
