45

C     -0.548769    0.950732    0.969021
C     -5.348806   -0.426620    2.180329
C      2.646267   -0.794603    0.792164
C      3.923263   -0.544305    1.299907
C      2.900587    1.018429   -0.708431
C      0.835773   -1.596087   -1.528460
C     -2.926777    0.882770   -1.784110
C     -1.549468   -2.045240   -1.002502
C     -2.674474   -0.420620    0.612569
C      6.030384    2.322209    0.604826
C     -0.291712   -0.325566    0.193050
C      2.128218   -0.013551   -0.215583
C     -0.573127   -1.746829   -2.150562
C      0.778786   -0.234381   -0.791825
C     -3.881124    1.117802   -0.710534
C      4.701913    0.485027    0.813082
C      4.160778    1.260749   -0.203113
C     -3.694412    0.383689    0.544773
C     -1.919304    0.064270   -1.682642
C     -1.663319   -0.685051   -0.407131
O     -4.841799    1.918852   -0.831830
O     -4.604872    0.591246    1.565230
O      5.982956    0.976970    1.103643
O      5.144955    2.211872   -0.500576
O     -0.881565   -0.397299   -2.520082
H      0.345038    1.349813    1.450150
H     -1.076942    1.647101    0.315041
H     -1.260909    0.677880    1.789341
H     -5.988478    0.056742    2.959459
H     -4.635642   -1.147828    2.615766
H     -5.979261   -0.995097    1.457258
H      2.067610   -1.600487    1.191135
H      4.319419   -1.168703    2.095184
H      2.540908    1.671972   -1.509180
H      1.535250   -1.596982   -2.356183
H      0.928510   -2.393298   -0.782122
H     -3.046338    1.411391   -2.730266
H     -1.140918   -2.812953   -0.328501
H     -2.498213   -2.346676   -1.487378
H     -2.552864   -0.975824    1.557134
H      5.594165    2.946454    1.417094
H      7.037299    2.619675    0.303276
H     -0.010049   -1.141361    0.929983
H     -0.558452   -2.459154   -2.938136
H      0.545514    0.496603   -1.590265
