57

C      4.567117   -0.334605   -0.472514
C      3.128292    0.173089    1.422333
C     -4.239747    0.514122   -0.600755
C     -0.046448   -0.663535   -0.995522
C      0.323775    1.291736    0.258585
C     -1.387779   -0.643769   -0.630713
C     -1.015932    1.312625    0.623749
C      2.267536    0.317912   -0.923142
C      3.130640   -0.442227    0.038678
C     -3.317391    0.396515    0.593221
C      0.837272    0.304317   -0.558119
C     -1.891458    0.342788    0.182830
C     -3.694453   -0.828330    1.327038
O     -4.114747   -0.800486    2.503807
O     -3.579267   -2.048407    0.692252
C     -0.536095    0.147498    0.253365
C     -1.733467    0.815089   -0.389305
C      0.730585    0.594928   -0.422447
C     -3.024206    0.404343    0.246262
C      1.922408   -0.070539    0.218384
C      3.172183    0.384637   -0.464470
N     -3.240941   -1.003503    0.151528
N      1.846121   -1.500506    0.226895
O      3.403910    1.612022   -0.564132
O      4.072760   -0.509820   -0.985349
H      4.768835    0.762393   -0.574271
H      5.264780   -0.686706    0.331422
H      4.707845   -0.869912   -1.413441
H      4.078732   -0.076451    1.973625
H      3.084356    1.269388    1.390932
H      2.311385   -0.285505    2.032516
H     -4.461637   -0.503387   -1.019075
H     -5.201853    0.918659   -0.234863
H     -3.813802    1.198493   -1.354781
H      0.340636   -1.433767   -1.629048
H      0.953591    2.073166    0.633636
H     -2.067781   -1.412680   -0.984003
H     -1.411840    2.085686    1.261545
H      2.676550    1.354259   -0.995244
H      2.419811   -0.130447   -1.928916
H      2.860007   -1.507216    0.088838
H     -3.526111    1.261364    1.245718
H     -3.950910   -2.909083    1.041119
H     -0.635116   -0.950097    0.160615
H     -0.480389    0.401937    1.323847
H     -1.780612    0.560163   -1.461240
H     -1.654459    1.915638   -0.313372
H      0.721938    0.381236   -1.500576
H      0.865658    1.691741   -0.307442
H     -3.843485    0.913569   -0.301978
H     -3.056728    0.792580    1.287571
H      1.997104    0.265639    1.280530
H     -4.224298   -1.268324   -0.068061
H     -2.521890   -1.536199   -0.346850
H      1.080888   -1.824672    0.837212
H      1.839407   -1.915981   -0.712161
H      5.078725   -0.301380   -1.060141
