47

C      1.427624    1.020014   -1.060658
C     -0.859012    1.029693    0.882150
C     -5.572778    2.238729   -0.670248
C      3.963208   -1.543305    0.628994
C     -2.963954   -2.111204   -0.385112
C      5.293613   -1.722391    0.329915
C     -4.277789   -2.384585   -0.071596
C      1.954048   -0.171163    1.077823
C     -1.190531   -0.543228   -1.031298
C      4.163248    0.810601    0.577028
C     -3.532130    0.221247   -0.704171
C      1.092966   -0.126484   -0.162501
C     -0.368556   -0.199241    0.179289
C      3.381996   -0.303587    0.756237
C     -2.605177   -0.797950   -0.700496
C      6.055766   -0.596787    0.154965
C     -5.219841   -1.381780   -0.069184
C      5.490428    0.648574    0.278617
C     -4.834531   -0.081821   -0.387419
O      7.407863   -0.778338   -0.148993
O     -6.532378   -1.703545    0.253057
O      6.300371    1.786743    0.092863
O     -5.819007    0.877398   -0.368436
H      2.367486    0.803716   -1.591421
H      0.646731    1.285323   -1.769682
H      1.630022    1.901998   -0.412673
H     -0.580547    1.931413    0.298798
H     -1.941181    1.044469    1.037409
H     -0.294361    1.113950    1.848255
H     -5.028508    2.725554    0.161292
H     -6.514029    2.768373   -0.897194
H     -4.915761    2.278423   -1.577744
H      3.364096   -2.448378    0.766576
H     -2.205572   -2.880556   -0.394089
H      5.744632   -2.696863    0.231197
H     -4.534176   -3.423030    0.172334
H      1.615872   -0.961834    1.749580
H      1.782516    0.798770    1.624350
H     -1.131207    0.292841   -1.780211
H     -0.745039   -1.419879   -1.544833
H      3.772147    1.821050    0.662376
H     -3.272033    1.247466   -0.946965
H      1.327555   -1.067226   -0.737574
H     -0.475283   -1.046849    0.912288
H      7.972440    0.047911   -0.278567
H     -7.272468   -1.018257    0.273971
H      5.931222    2.714026    0.173279
