47

C     -1.456722    0.223411    1.574698
C      0.515217   -1.815086    0.915172
C      5.025743    1.108716   -2.789048
C     -3.645908    0.622452   -1.677890
C      3.254261   -0.435038    1.717722
C     -4.884151    1.213789   -1.745878
C      4.585297   -0.770448    1.666740
C     -1.973870   -0.899352   -0.619631
C      1.263751    0.564773    0.682727
C     -4.310277   -0.530828    0.273518
C      3.453370    0.503663   -0.495527
C     -1.037326   -0.013644    0.150605
C      0.381121   -0.533100    0.151611
C     -3.324296   -0.275910   -0.653294
C      2.704550    0.201798    0.627322
C     -5.839526    0.928530   -0.795816
C      5.345111   -0.466288    0.532173
C     -5.563208    0.037519    0.245438
C      4.790598    0.169372   -0.552722
O     -7.106851    1.509461   -0.832401
O      6.682160   -0.809943    0.495973
O     -6.529074   -0.241526    1.193297
O      5.583332    0.454148   -1.663819
H     -0.941885    1.155051    1.948702
H     -2.544121    0.499556    1.647029
H     -1.235674   -0.658281    2.188708
H      0.530736   -1.662401    2.012067
H     -0.315922   -2.496581    0.648484
H      1.442711   -2.369300    0.672205
H      4.410816    1.975507   -2.461222
H      4.458667    0.419780   -3.440161
H      5.901206    1.565948   -3.335375
H     -2.861709    0.812312   -2.397853
H      2.650025   -0.672264    2.609594
H     -5.107617    1.898428   -2.539499
H      5.063997   -1.275385    2.505578
H     -1.641532   -0.985710   -1.671591
H     -2.043584   -1.934905   -0.235676
H      1.119251    1.446625    0.023496
H      1.036358    0.809659    1.733674
H     -4.073410   -1.230201    1.071681
H      2.990787    1.012861   -1.353548
H     -1.020335    0.968105   -0.379766
H      0.699256   -0.710233   -0.921941
H     -7.313326    2.154967   -1.583036
H      7.218503   -0.585501   -0.326624
H     -6.336499   -0.884504    1.948732
