56

C     -2.716220   -1.230194    1.950049
C     -3.433308    0.932405    0.865773
C     -2.132996   -3.160210   -1.117619
C     -4.257696   -1.981963   -1.352267
C      2.361715    5.186964   -0.834270
C      1.143487    4.927264   -0.238967
C      3.083150    4.124592   -1.361241
C      0.658731    3.630145   -0.173409
C      2.567731    2.854216   -1.276272
C      3.272659   -1.594911    1.515405
C      2.565640   -0.636807    2.197011
C     -0.613678    0.992464   -0.544561
C     -0.972842   -0.450585   -0.517403
C      2.445155   -0.767613   -0.510601
C      4.005287   -2.715496   -0.604115
C     -3.114581   -0.546132    0.673453
C     -2.764200   -1.818257   -1.347112
C      3.224836   -1.676402    0.146792
C      1.331097    2.570226   -0.674829
C      0.885267    1.176563   -0.649363
C      1.694094    0.241010    0.131217
C      1.763153    0.297198    1.492238
N     -2.324316   -0.792989   -0.450051
O      4.815804   -3.392234    0.304474
O      1.102933    1.209507    2.259920
H     -2.491004   -0.415127    2.694377
H     -1.884152   -1.939497    1.855875
H     -3.558971   -1.800404    2.435126
H     -3.277141    1.489301   -0.094184
H     -2.904632    1.372656    1.731508
H     -4.531062    1.105214    1.077328
H     -1.092421   -3.221724   -1.452380
H     -2.287088   -3.481946   -0.073980
H     -2.719711   -3.896440   -1.734361
H     -4.644046   -2.652430   -0.583760
H     -4.800750   -1.019432   -1.463956
H     -4.482871   -2.521536   -2.328701
H      2.728060    6.205330   -0.879130
H      0.531858    5.712155    0.192605
H      4.030954    4.358034   -1.821539
H     -0.301344    3.455779    0.298453
H      3.137013    2.041595   -1.691828
H      3.893004   -2.319038    2.036761
H      2.610087   -0.578046    3.278795
H     -1.029792    1.535851   -1.423906
H     -0.952356    1.481990    0.378444
H     -0.413603   -0.954614    0.297489
H     -0.558664   -0.891597   -1.467441
H      2.387564   -0.811661   -1.591315
H      4.704841   -2.209395   -1.326629
H      3.379871   -3.437890   -1.129357
H     -4.132818   -0.996953    0.433843
H     -2.494674   -1.459931   -2.374809
H      1.072046    0.846903   -1.755972
H      4.979520   -4.318567    0.058049
H      0.511378    1.942661    2.044220
