42

C     -1.910105    1.308357   -1.367367
C      1.794361   -2.042603    0.261237
C      4.251249    1.391529    0.492363
C      0.466101   -1.881900   -0.356932
C      2.884797    1.547433    0.452309
C     -2.458655   -1.438118   -0.429481
C     -3.770368   -0.904284    0.130053
C      0.087523    1.536039    0.936139
C     -1.384404    1.772940    0.960903
C      4.022430   -1.001258    0.379394
C      2.652820   -0.869670    0.338247
C      4.836468    0.130104    0.457002
C      2.098467    0.390965    0.374513
C      0.665248    0.512496    0.328419
C     -0.113704   -0.523141   -0.408058
C     -1.470935   -0.551356    0.241225
C     -3.519215    0.573061    0.382913
C     -2.080341    0.822641    0.052256
O      6.219595    0.018814    0.499511
O     -4.296133    1.273497   -0.547657
H     -2.061880    0.540000   -2.125053
H     -0.921758    1.775236   -1.500044
H     -2.716775    2.075797   -1.528358
H      1.664227   -2.427869    1.315272
H      2.392558   -2.861222   -0.238019
H      4.921978    2.237328    0.552569
H      0.551377   -2.250976   -1.423585
H     -0.256366   -2.624928    0.096022
H      2.436338    2.520690    0.479212
H     -2.510746   -1.354686   -1.517267
H     -2.322885   -2.509874   -0.187254
H     -4.611033   -1.077731   -0.564167
H     -3.938877   -1.441283    1.094500
H      0.691841    2.285040    1.470848
H     -1.710286    1.570655    2.002687
H     -1.551099    2.829891    0.714384
H      4.504518   -1.977752    0.353005
H     -0.265429   -0.155661   -1.454048
H     -1.404547   -0.805636    1.297436
H     -3.810746    0.878062    1.395626
H      6.710752    0.021152   -0.385440
H     -4.766362    0.688223   -1.171226
