41

C      2.408145   -1.402150   -2.204603
C     -1.380609    4.450324   -0.189870
C     -3.702030   -2.524061    0.112662
C     -2.934477   -2.261081   -0.980117
C     -3.396402   -1.837434    1.276451
C     -1.886127   -1.354881   -0.968825
C     -2.357739   -0.931225    1.310544
C      3.507569   -0.704626    1.824507
C      2.234273   -0.365829    1.379232
C     -0.851593    1.594889   -0.469506
C     -2.055126    2.203638    0.241371
C      4.028985   -1.481294   -0.339559
C      2.769609   -1.146581   -0.780858
C     -1.589682   -0.677177    0.192765
C      4.423697   -1.269706    0.963041
C      1.841263   -0.577777    0.077335
C     -0.470583    0.300343    0.224199
N     -2.430901    3.449568   -0.414109
O      5.690120   -1.603046    1.418481
O      0.608825   -0.273744   -0.441894
H      1.912517   -2.413051   -2.275681
H      3.306750   -1.412723   -2.846254
H      1.695208   -0.625997   -2.553826
H     -0.553303    4.307393   -0.889689
H     -0.984893    4.249290    0.832268
H     -1.796126    5.466820   -0.245777
H     -4.527465   -3.246567    0.079623
H     -3.161081   -2.791349   -1.902900
H     -3.989605   -2.029980    2.147576
H     -1.322264   -1.205758   -1.893442
H     -2.144173   -0.413192    2.228349
H      3.780242   -0.519432    2.870613
H      1.519447    0.079354    2.066842
H     -0.004059    2.303464   -0.402386
H     -1.152397    1.396937   -1.515306
H     -2.922566    1.506520    0.136874
H     -1.831030    2.394143    1.300244
H      4.734775   -1.925687   -1.037391
H     -0.282644    0.523967    1.292579
H     -2.582301    3.299386   -1.424761
H      5.847753   -2.531686    1.801199
