42

C     -2.900123   -0.291850    1.427702
C      1.808536   -2.226115   -0.062074
C      4.333817    1.158693    0.428969
C      0.503479   -1.788520   -0.748793
C      2.971219    1.238708    0.559254
C     -2.384263   -0.913832   -1.242716
C     -3.531200    0.102181   -1.366943
C      0.139989    1.347470    1.072504
C     -1.328341    1.546008    1.252854
C      4.070382   -1.150546   -0.024480
C      2.696312   -1.057242    0.109507
C      4.888081   -0.055252    0.132783
C      2.115611    0.165176    0.409944
C      0.677170    0.286802    0.554938
C     -0.234226   -0.810820    0.113002
C     -1.354360   -0.135547   -0.544781
C     -3.143561    1.287967   -0.492400
C     -2.186758    0.631489    0.479275
O      6.272926   -0.183397   -0.009172
O     -4.212097    1.890398    0.104596
H     -4.006946   -0.160415    1.252709
H     -2.736863    0.007379    2.485174
H     -2.623639   -1.341527    1.325550
H      1.527782   -2.675843    0.910257
H      2.270859   -2.968327   -0.738907
H      4.986188    2.034126    0.554684
H      0.807761   -1.357346   -1.722850
H     -0.081073   -2.714240   -0.883095
H      2.574158    2.212649    0.787779
H     -2.095438   -1.203746   -2.288308
H     -2.732661   -1.819840   -0.753478
H     -4.478852   -0.320242   -0.996630
H     -3.620201    0.452469   -2.423444
H      0.751115    2.166229    1.415123
H     -1.519374    1.475626    2.360188
H     -1.571444    2.593008    0.983590
H      4.487738   -2.136972   -0.262504
H     -0.600261   -1.353833    1.019313
H     -0.959783    0.646708   -1.242213
H     -2.523862    1.973521   -1.123769
H      6.887611    0.605592    0.101966
H     -3.945408    2.843255    0.305806
