34

C      2.572531    2.661575   -0.356126
C      1.206425    2.709190   -0.409130
C      3.259103    1.519073    0.018902
C     -1.626699   -2.000641    0.493063
C     -2.963014   -2.099149    0.252594
C     -1.039155    1.666806   -0.142470
C      3.183682   -0.881108    0.767403
C      1.209290   -1.907966   -0.157948
C      0.447736    1.572728   -0.076418
C      2.543592    0.396546    0.348447
C     -0.913085   -0.801401    0.386813
C     -1.613411    0.322449    0.020210
C      0.517659   -0.843383    0.674707
C     -3.635018   -0.962020   -0.111120
C      1.152047    0.453005    0.291792
C     -2.994646    0.236181   -0.231384
N      2.618996   -1.936190   -0.013344
O     -5.004852   -1.034057   -0.363532
O     -3.739688    1.345573   -0.603108
H      3.115902    3.563454   -0.621845
H      0.647642    3.593375   -0.700108
H      4.346710    1.504441    0.053915
H     -1.111178   -2.924938    0.782810
H     -3.520710   -3.025232    0.333308
H     -1.335632    2.081544   -1.147759
H     -1.371985    2.384908    0.628529
H      3.022780   -1.069659    1.847119
H      4.271238   -0.812856    0.506293
H      0.969902   -1.662308   -1.227906
H      0.775288   -2.917822    0.007475
H      0.715615   -1.062885    1.751032
H      3.124616   -2.092912   -0.913502
H     -5.528018   -0.215498   -0.633050
H     -3.303665    2.239179   -0.698187
