38

C      6.593057   -0.008032    1.233333
C     -4.451602    1.562512   -0.707041
C     -3.001366    1.292917    1.226616
C      5.670731   -0.974207    0.551314
C      2.344494   -0.221814   -1.125524
C      1.212511   -0.414133   -0.133407
C     -4.004979   -0.716089    0.204392
C      3.527540   -0.935884   -0.611427
C     -2.295644    0.534706   -1.054988
C     -1.157370   -0.307270   -0.655557
C     -3.401591    0.640130   -0.059253
N      0.000777    0.229822   -0.511594
O     -5.098041   -0.554447    1.066334
O      3.685601   -2.187553   -0.754210
O     -1.883897    1.803042   -1.479936
O     -1.232622   -1.669687   -0.415171
O      4.532466   -0.257103    0.061065
H      6.828523    0.809774    0.520288
H      6.106986    0.386189    2.143274
H      7.530198   -0.556609    1.469205
H     -4.566662    1.195694   -1.752676
H     -4.029992    2.570580   -0.680483
H     -5.396282    1.501715   -0.137080
H     -2.368322    2.189203    1.042706
H     -3.948068    1.690304    1.698134
H     -2.565299    0.599909    1.966606
H      6.193284   -1.462688   -0.291830
H      5.370126   -1.767534    1.265010
H      2.569260    0.862772   -1.170726
H      2.054661   -0.532849   -2.154678
H      1.569183    0.082371    0.808990
H      1.090289   -1.484798    0.033758
H     -3.237918   -1.362541    0.673497
H     -4.359826   -1.142089   -0.747994
H     -2.752891    0.074270   -1.980966
H     -5.239395   -1.411698    1.523211
H     -1.324766    2.271315   -0.841230
H     -0.563156   -2.330199   -0.767000
