38

C      5.916415    1.433109    0.073056
C     -2.887798    0.700895    1.328035
C     -4.680518   -0.843136    0.665596
C      5.998890   -0.075267   -0.008652
C      2.333610   -0.881706    0.375532
C      1.195550   -0.366359   -0.468935
C     -3.740076    0.804992   -0.953654
C      3.617157   -0.327194   -0.101695
C     -2.420581   -1.146686   -0.248764
C     -1.129214   -0.610796   -0.702765
C     -3.429161   -0.129142    0.169369
N     -0.069794   -0.882405   -0.037274
O     -4.713739    1.757953   -0.562056
O      3.618637    0.450103   -1.080413
O     -2.250839   -2.008500    0.860593
O     -1.046920    0.174711   -1.828169
O      4.819773   -0.640072    0.499580
H      4.939786    1.783934    0.446322
H      6.036302    1.838716   -0.954935
H      6.684237    1.825869    0.763159
H     -2.201235    1.478741    0.953006
H     -2.438815    0.026447    2.072192
H     -3.789203    1.155283    1.811628
H     -5.090271   -1.524711   -0.094062
H     -4.373081   -1.428842    1.569519
H     -5.423529   -0.111538    1.009194
H      6.850432   -0.426045    0.606918
H      6.125802   -0.411393   -1.066858
H      2.356819   -1.983202    0.381924
H      2.227542   -0.568482    1.439441
H      1.141501    0.739598   -0.408229
H      1.427682   -0.604077   -1.526351
H     -2.820144    1.444097   -1.106205
H     -3.966456    0.340497   -1.909933
H     -2.847512   -1.819572   -1.044343
H     -4.268867    2.362240    0.104196
H     -1.467417   -1.700499    1.393633
H     -0.234965    0.172441   -2.419603
