24

C     -0.710188   -2.099464   -1.053002
C     -3.003707    1.470591    1.207025
C      3.046752    1.127810   -0.250046
C      2.906610    0.283117    0.836053
C      2.034583    1.199112   -1.172533
C      1.742383   -0.470670    0.962154
C      0.885533    0.457207   -1.051000
C     -0.530282   -1.187488    0.136413
C      0.738766   -0.381349    0.021012
C     -1.686999   -0.282996    0.220180
O     -2.577354   -0.358162   -0.665167
O     -1.849105    0.655146    1.231015
H     -1.459980   -1.719430   -1.775554
H      0.257265   -2.146272   -1.620611
H     -0.935156   -3.141356   -0.766868
H     -2.672151    2.544288    1.312924
H     -3.716598    1.219225    2.005584
H     -3.485358    1.434128    0.189629
H      3.948085    1.721182   -0.361582
H      3.685198    0.203966    1.580156
H      2.130426    1.866097   -2.042145
H      1.601267   -1.150430    1.813207
H      0.124839    0.565191   -1.821549
H     -0.474828   -1.809445    1.064708
