26

C     -1.545383    1.905676   -0.020469
C      3.010184   -0.490020    0.488925
C      1.697437   -0.905984    0.425168
C     -0.941373   -1.671856    0.516698
C     -2.467544   -1.724609    0.354830
C      3.462260    0.670668   -0.112154
C      1.288566    1.055253   -0.875310
C      0.809781   -0.092837   -0.288104
C     -0.580796   -0.509652   -0.381328
C     -2.780785   -0.273288    0.257763
N     -1.577385    0.466574   -0.062582
N      2.591721    1.438292   -0.793570
O     -3.928228    0.212829    0.432416
O      3.041938    2.591163   -1.390335
H     -0.625443    2.296067    0.468584
H     -2.420562    2.261550    0.561088
H     -1.609380    2.357380   -1.054778
H      3.708441   -1.128355    1.049197
H      1.395016   -1.813406    0.907453
H     -0.495519   -2.616157    0.168525
H     -0.768241   -1.448357    1.579910
H     -2.921671   -2.184099    1.247116
H     -2.757305   -2.251271   -0.563993
H      4.518191    0.970151   -0.039244
H      0.657355    1.721775   -1.444424
H     -0.761273   -0.837487   -1.431380
