86

C      7.120028   -1.355293   -3.007281
C      2.139587   -0.569512   -3.241807
C     -0.772824   -1.692704    0.334864
C     -1.405329   -0.705850   -1.777912
C     -2.414395    0.321878    1.807191
C      9.305267   -1.953311    0.120582
C     -9.232114    1.823456   -1.054271
C     -5.147174   -2.865572    1.314494
C     -9.059634    1.944138    0.299452
C     -8.130085    1.556563   -1.838511
C     -4.888010   -2.296464    0.094690
C     -5.476217   -2.054996    2.366226
C      5.163863    2.567638    0.993768
C     -7.808152    1.801091    0.853164
C     -6.857483    1.413887   -1.245294
C     -4.961214   -0.909945   -0.062106
C     -5.551716   -0.675217    2.219706
C      4.941280    1.471168    0.167697
C      5.163090    2.404745    2.357944
C     -4.305927    1.974046   -0.067126
C     -2.895978    2.086876    0.307162
C      4.719136    0.060169    2.038679
C     -0.857963    0.822818    0.005126
C      5.840158   -1.126613   -2.288935
C      3.365962   -0.736748   -2.380512
C     -6.693137    1.535113    0.094033
C     -5.289283   -0.096351    0.986346
C      4.719338    0.221505    0.671733
C      4.939695    1.144264    2.894830
C     -5.349290    1.388050    0.762067
C      5.754782   -1.141108   -0.980757
C      3.306007   -0.755570   -1.082982
C      4.490448   -0.912482   -0.221777
C      6.928889   -1.415804   -0.185224
C      1.993690   -0.661462   -0.412106
C     -0.482641   -0.498768   -0.538569
N      4.618940   -0.918311   -3.025951
N     -2.155681    0.939997    0.586096
N      4.939856    0.992030    4.304760
O      6.863622   -1.425964    1.068284
O      1.899668   -0.660610    0.857828
O      4.703497   -0.283655    4.804889
O      5.144050    1.957524    5.065720
O      8.190194   -1.686210   -0.716370
O      0.817034   -0.575872   -1.100477
H      7.846713   -0.576943   -2.688954
H      6.927510   -1.269252   -4.118318
H      7.568489   -2.332498   -2.841481
H      1.491658   -1.478194   -3.134265
H      1.618555    0.372843   -3.068297
H      2.433887   -0.580236   -4.315339
H     -1.755853   -2.169396    0.115163
H     -0.520131   -1.579160    1.385068
H     -0.039953   -2.488571   -0.037399
H     -1.164196   -1.647012   -2.286778
H     -1.230440    0.116898   -2.497376
H     -2.448158   -0.677114   -1.467850
H     -2.701047   -0.727182    1.701483
H     -3.128708    0.936893    2.435704
H     -1.510406    0.282376    2.496583
H      9.388852   -3.057818    0.320386
H     10.257205   -1.674769   -0.373253
H      9.158902   -1.439495    1.094585
H    -10.222611    1.934325   -1.524138
H     -5.078091   -3.951182    1.396070
H     -9.900210    2.148552    0.923145
H     -8.262801    1.462350   -2.898835
H     -4.624828   -2.923673   -0.755625
H     -5.676435   -2.537199    3.330427
H      5.335794    3.534912    0.534164
H     -7.640251    1.891455    1.932285
H     -6.082138    1.207086   -1.952025
H     -4.751027   -0.551953   -1.058597
H     -5.808948   -0.038668    3.038151
H      4.944476    1.616685   -0.908625
H      5.330446    3.220840    3.037286
H     -4.380989    1.496445   -1.122376
H     -4.650508    3.055248   -0.295352
H     -2.900013    2.740896    1.274400
H     -2.337544    2.800155   -0.397061
H      4.542760   -0.927961    2.460054
H     -0.784001    1.616832   -0.791074
H     -0.136716    1.192832    0.797056
H     -5.429911    1.829721    1.793186
H      4.327726   -1.851045    0.388362
H      4.659111   -0.900087   -4.069904
