48

C     -8.802945   -1.159784   -1.485396
C      8.938459   -1.203287    1.594909
C     -5.020738   -1.076435    0.314363
C     -4.346941    0.631473   -1.164401
C      4.649078    0.771192    0.832021
C      4.973408   -1.497224    0.330737
C     -6.270270   -1.098789   -0.285738
C     -5.590722    0.610724   -1.763336
C      5.952433    0.910825    1.258914
C      6.299132   -1.384948    0.757108
C     -4.037385   -0.210712   -0.114769
C      4.124754   -0.411504    0.363140
C     -6.579259   -0.259863   -1.331622
C      6.783261   -0.193630    1.216234
C     -0.462368    0.787570    0.609093
C      0.521857    0.456223   -0.486281
C     -0.259580    2.148230    1.117216
C      0.294019    1.407415   -1.593506
C     -2.720878   -0.175818    0.505480
C      2.739450   -0.549369   -0.087833
O      0.819435    2.521494    1.667669
O     -1.253657    3.115100    1.021109
O      1.258375    2.099466   -1.998956
O     -0.932468    1.581458   -2.215589
O     -2.466333   -0.952794    1.458492
O      2.330643   -1.644367   -0.499035
O     -7.819075   -0.256376   -1.954332
O      8.095147   -0.075971    1.639881
O     -1.763070    0.695267    0.057765
O      1.849258    0.510317   -0.074723
H     -9.797874   -0.891505   -1.896974
H     -8.887364   -1.103695   -0.390983
H     -8.511165   -2.198677   -1.762099
H      9.883778   -0.979422    2.129462
H      9.211397   -1.490963    0.564497
H      8.469135   -2.081332    2.097989
H     -4.791751   -1.745401    1.139668
H     -3.570590    1.303352   -1.490859
H      4.014230    1.654037    0.874897
H      4.633693   -2.470075   -0.027539
H     -7.027544   -1.797757    0.079029
H     -5.832618    1.275897   -2.591066
H      6.366086    1.830929    1.625411
H      6.959223   -2.248524    0.726876
H     -0.425909    0.026079    1.436834
H      0.265155   -0.577502   -0.835800
H     -1.186241    3.987155    1.562983
H     -1.074661    2.303767   -2.930942
