54

C      6.816835    2.051892    0.366771
C      2.735431   -1.945025   -2.336184
C      0.122141   -1.621559    1.033029
C      6.205615    0.664822    0.351838
C      4.727266    0.762083    0.044318
C     -5.066429   -0.233129    3.014443
C     -3.791913   -0.070010    3.485473
C      4.126018   -0.628071    0.031197
C     -5.304858   -0.257739    1.634970
C     -2.753081    0.068879    2.586630
C     -4.623931    1.257697   -1.274003
C     -3.791916    1.227371   -2.560091
C     -0.746669    0.586297    0.253299
C      2.074913   -1.132944   -1.287689
C      2.659939   -0.565611   -0.271659
C     -4.267098   -0.118991    0.731095
C     -3.001518    0.042962    1.202512
C      0.620067   -0.860184   -1.269420
C      1.653992    0.130701    0.507148
C     -2.803703   -0.220692   -1.137470
C      0.300395   -0.446025    0.075862
C     -4.249018   -0.108059   -0.725980
N     -2.109753    0.160474    0.074380
O     -0.106333   -0.988086   -2.259565
O      1.873320    1.014607    1.349560
O     -5.030493   -1.113554   -1.294132
O     -2.601676    0.692766   -2.158909
H      7.062331    2.335598    1.417671
H      7.702452    2.132978   -0.283793
H      6.078836    2.810215    0.009138
H      3.406033   -1.260021   -2.922154
H      3.349941   -2.745248   -1.857185
H      2.028193   -2.368896   -3.058151
H     -0.805765   -2.184761    0.806194
H      0.980384   -2.298856    0.854711
H      0.172188   -1.261356    2.066924
H      6.748100    0.053660   -0.380131
H      6.272358    0.206696    1.376055
H      4.217430    1.367181    0.813851
H      4.550730    1.243257   -0.930554
H     -5.925649   -0.347523    3.662057
H     -3.586947   -0.048471    4.545723
H      4.330228   -1.129147    0.992499
H      4.648755   -1.217442   -0.749384
H     -6.293814   -0.384275    1.244294
H     -1.748020    0.197340    2.953719
H     -5.695702    1.362241   -1.477064
H     -4.214390    2.036557   -0.603592
H     -4.314826    0.620391   -3.326858
H     -3.658459    2.278923   -2.859352
H     -0.569097    1.445603   -0.445914
H     -0.615188    1.045818    1.272118
H     -2.651264   -1.269683   -1.436527
H     -5.136380   -0.971650   -2.252858
