60

C      6.361699   -0.243455    2.144430
C      1.729356    0.027130    2.130059
C      2.516702    0.652474   -3.486437
C     -2.633144   -3.027830   -0.247094
C      6.557322   -0.562954    0.679631
C     -4.927091    0.407119    1.240196
C     -5.844932    0.418205   -0.931119
C     -5.913668    1.300032    1.632104
C     -6.819538    1.303826   -0.534228
C     -0.049779   -1.327570    0.282102
C     -1.172703   -0.451566    0.772808
C      1.261463   -0.314607   -1.583594
C      2.922905    0.947664    0.186652
C      5.094003    2.594150   -0.899789
C      1.878925    0.148231    0.674565
C      2.288730    0.471768   -2.032472
C     -3.167800   -1.824813    0.452444
C     -4.873438   -0.047013   -0.036042
C      1.050636   -0.481115   -0.218654
C     -6.869319    1.760146    0.759141
C      3.154271    1.129090   -1.143349
C      5.915333    1.678766   -0.076091
C     -3.889935   -0.993264   -0.604698
N     -2.307162   -1.097307    1.284771
O     -7.859982    2.667243    1.181712
O      6.777260    2.202351    0.672089
O     -4.678382   -1.908265   -1.357220
O      5.780044    0.316910   -0.095765
O      4.168952    1.906921   -1.666732
H      5.363900    0.214918    2.279144
H      7.131284    0.513543    2.464843
H      6.456639   -1.192038    2.733796
H      2.787537   -0.043911    2.532688
H      1.256100   -0.912576    2.473089
H      1.301489    0.924351    2.626747
H      2.227580    1.690923   -3.738498
H      1.995842   -0.115834   -4.079139
H      3.606838    0.514723   -3.668684
H     -3.496308   -3.761461   -0.346670
H     -2.391904   -2.826743   -1.336654
H     -1.863781   -3.593747    0.277430
H      6.232169   -1.603540    0.456329
H      7.628480   -0.451753    0.411275
H     -4.186157    0.055610    1.944340
H     -5.850597    0.086810   -1.968997
H     -5.903817    1.630566    2.676154
H     -7.583534    1.668849   -1.239709
H     -0.330454   -1.990035   -0.564140
H      0.244910   -2.006388    1.111793
H     -0.719994    0.145316    1.623230
H     -1.377859    0.326067    0.002689
H      0.575374   -0.836117   -2.254633
H      3.562310    1.449647    0.916308
H      5.736702    3.222783   -1.576128
H      4.614030    3.349174   -0.217814
H     -4.019716   -2.194762    1.112256
H     -3.178631   -0.524502   -1.310405
H     -2.246025   -1.324565    2.278479
H     -8.710813    2.237231    1.539498
H     -5.312320   -2.304803   -0.693424
