54

C      6.398058    0.022614    1.337441
C      2.511293   -0.892983   -2.921779
C      0.379295    1.232079    1.000160
C      5.343476   -0.306303    0.264271
C      4.752520   -1.634952    0.570624
C     -4.848095    1.129361    2.729589
C     -3.917947    0.276190    3.300880
C      3.707260   -2.134955   -0.371787
C     -4.780637    1.381479    1.369405
C     -2.939961   -0.310775    2.526462
C     -4.713088    0.513468   -1.720717
C     -4.329277   -0.794859   -2.328369
C     -0.653507   -0.978933    0.478946
C      2.007028   -0.666199   -1.517394
C      2.520078   -1.196552   -0.425444
C     -3.820642    0.813782    0.564709
C     -2.917544   -0.023127    1.163645
C      0.847172    0.193201   -1.193025
C      1.770888   -0.712358    0.715805
C     -2.612924   -0.344708   -1.097145
C      0.492337   -0.088625    0.197139
C     -3.500564    0.862235   -0.862168
N     -1.977512   -0.496608    0.167697
O      0.329760    0.996026   -2.040446
O      2.093287   -0.777602    1.939936
O     -2.837007    1.982933   -1.274680
O     -3.529264   -1.390140   -1.356877
H      7.168071   -0.797465    1.280875
H      6.829055    1.005007    1.127611
H      5.966468   -0.089245    2.353785
H      3.119362    0.002566   -3.161098
H      3.008499   -1.854467   -3.017253
H      1.600508   -0.871558   -3.591287
H      1.326749    1.776485    0.811722
H      0.348470    1.033158    2.086529
H     -0.527895    1.786408    0.703136
H      5.853001   -0.356370   -0.719207
H      4.602718    0.510447    0.208500
H      5.552781   -2.414471    0.748524
H      4.264310   -1.553481    1.592313
H     -5.613233    1.584368    3.380743
H     -3.936803    0.051459    4.368322
H      3.290805   -3.074824    0.098787
H      4.092751   -2.316358   -1.392239
H     -5.496308    2.041255    0.899761
H     -2.194442   -0.987356    2.959119
H     -5.560619    0.381942   -1.004189
H     -4.902887    1.308832   -2.473062
H     -5.188640   -1.448064   -2.608444
H     -3.649055   -0.587235   -3.186359
H     -0.500510   -1.964738   -0.067809
H     -0.606203   -1.222382    1.583477
H     -2.000096   -0.235231   -1.974907
H     -2.621344    2.016457   -2.224224
