74

C     -5.081144   -2.171306   -1.201889
C      3.502376    0.703845   -2.040027
C     -3.944799    0.917829    2.260992
C     -3.095095    3.591182    1.104931
C     -2.465112    3.279060   -1.195414
C     -2.253566   -3.433866    0.081340
C     -3.487794   -2.686634    0.590374
C     -0.987698   -2.689004    0.427478
C      4.146119   -0.263138    0.091783
C      1.548863   -1.503712    0.483182
C      0.013323    1.713244    0.543714
C      9.146844   -0.377994    0.229489
C      5.635371    1.684456   -0.428991
C     -3.915666   -1.628521   -0.365621
C      3.230206   -0.115879   -0.804966
C     -3.329914    0.393125    1.029873
C      5.500907    0.370260   -0.053556
C      0.194945   -3.576423    0.150225
C      1.897354   -0.711532   -0.727547
C      1.485610   -3.003816    0.218521
C     -0.809751    2.981771    0.561181
C      7.749334    0.156377    0.052306
C      0.485128    1.368543   -0.820159
C     -4.407571   -0.359415    0.257447
C     -2.603976    1.303910    0.153359
C     -2.272042    2.702725    0.223445
N      6.604581   -0.295844    0.159952
O      8.993318   -1.725791    0.484368
O     -0.218416    3.887576   -0.306179
O      0.506276    2.361255   -1.635023
O     -5.472108   -0.679066    1.098250
O     -2.188535    0.724094   -0.875845
O      1.066441   -3.768059    1.278119
O      0.853704    0.127125   -1.163173
S      7.422529    1.858519   -0.444131
H     -5.245854   -3.252873   -0.965919
H     -6.035989   -1.669554   -0.956355
H     -4.899732   -2.103409   -2.272715
H      3.120013    1.724009   -1.939156
H      4.550243    0.702560   -2.336881
H      2.965772    0.199804   -2.910420
H     -4.096582    0.027807    2.953551
H     -5.009482    1.273697    2.110904
H     -3.342156    1.615309    2.852771
H     -3.109616    4.643762    0.684972
H     -2.540573    3.733087    2.079937
H     -4.135076    3.312516    1.219553
H     -1.896956    4.201111   -1.343243
H     -3.555258    3.477313   -1.276291
H     -2.235439    2.484823   -1.938022
H     -2.220546   -4.464610    0.464758
H     -2.315795   -3.487900   -1.025353
H     -3.328374   -2.329486    1.630807
H     -4.281287   -3.480986    0.683087
H     -1.032640   -2.450160    1.514246
H     -0.996638   -1.763299   -0.185582
H      4.016857   -0.858107    1.015973
H      0.577813   -1.169014    0.945592
H      2.283945   -1.354385    1.274921
H      0.910210    1.822093    1.182250
H     -0.564156    0.855675    0.941083
H      9.551588    0.078274    1.173289
H      9.776801   -0.196440   -0.641884
H      4.913761    2.466123   -0.661586
H     -3.093146   -1.456545   -1.090515
H     -2.595071   -0.413513    1.334519
H      0.036559   -4.498646   -0.445076
H      1.925937   -1.513848   -1.572809
H      2.292111   -3.346767   -0.456882
H     -0.722127    3.412736    1.582160
H     -4.821626    0.273173   -0.550093
H      8.469689   -2.124865   -0.281867
H     -0.424473    4.827862   -0.077964
H     -6.342751   -0.332226    0.775159
