74

C     -5.096488    3.105389   -0.156257
C      4.304854    0.464913   -1.445968
C     -4.447917    0.170804    1.442376
C     -3.496049   -3.754987   -0.440503
C     -2.888494   -2.612530    1.608310
C     -1.624797    3.545245    0.528842
C     -2.891214    2.744870    0.866288
C     -0.425726    2.618177    0.475454
C      4.420765   -1.435921    0.011135
C      1.545063    0.553291   -0.088089
C     -0.446339   -2.503013    0.687347
C      8.843428    1.014346   -0.088781
C      6.685632   -2.486069   -0.036483
C     -3.718871    2.461192   -0.336922
C      3.654787   -0.611659   -0.652691
C     -3.500252    0.026734    0.274866
C      5.921817   -1.303312   -0.022574
C     -0.007822    2.328649   -0.936430
C      2.144760   -0.728550   -0.630559
C      0.810657    1.220757   -1.188914
C     -1.432681   -2.414648   -0.445627
C      7.762210   -0.004204   -0.064533
C      0.938811   -2.788641    0.234325
C     -3.828745    1.050141   -0.746484
C     -3.668719   -1.328921   -0.367111
C     -2.838343   -2.502051    0.097844
N      6.605903   -0.203437   -0.039479
O      8.238457    2.245024   -0.066339
O     -1.245224   -1.291461   -1.240367
O      1.144178   -4.001073   -0.068190
O     -5.157752    0.816173   -1.164539
O     -4.484493   -1.456861   -1.264019
O      1.292042    2.620364   -1.341014
O      1.806724   -1.764372    0.192938
S      8.391251   -1.786531   -0.074374
H     -5.914786    2.394596   -0.291077
H     -5.190363    3.503940    0.895183
H     -5.260829    3.956079   -0.815853
H      4.820721    1.189590   -0.787879
H      4.996388   -0.046999   -2.155156
H      3.519226    1.047842   -1.982831
H     -3.867744   -0.002708    2.361200
H     -5.344188   -0.482315    1.348802
H     -4.861297    1.211694    1.519592
H     -4.569134   -3.562694   -0.701845
H     -3.519884   -4.570284    0.309207
H     -3.005774   -4.157017   -1.336878
H     -2.272294   -1.893694    2.138928
H     -3.953721   -2.364182    1.885674
H     -2.764133   -3.670141    1.942011
H     -1.464645    4.381442    1.205390
H     -1.731382    3.970596   -0.507266
H     -3.455184    3.402127    1.592483
H     -2.560678    1.884654    1.440184
H      0.403146    3.138325    1.008575
H     -0.672776    1.707592    1.061201
H      3.966713   -2.220386    0.590316
H      0.860012    0.329079    0.783477
H      2.355921    1.161075    0.370945
H     -0.429733   -1.602875    1.332650
H     -0.844493   -3.307231    1.361601
H      9.532537    0.819327    0.750725
H      9.450765    0.955912   -1.020832
H      6.443507   -3.511291   -0.029129
H     -3.247992    3.025029   -1.197859
H     -2.428731    0.040464    0.588148
H     -0.764240    2.623707   -1.692040
H      1.865972   -0.803833   -1.681768
H      0.757380    0.707889   -2.191684
H     -1.246846   -3.290329   -1.100759
H     -3.210872    0.820706   -1.664352
H      7.611670    2.270614    0.720488
H     -1.618366   -1.441209   -2.150029
H     -5.695282    0.377084   -0.474803
