51

C      4.540584   -1.805892   -1.510431
C      3.675998    0.490257   -1.245789
C     -2.250485   -3.898900    0.905672
C     -4.516896    2.488071   -2.126362
C     -2.378035   -3.363940   -0.357937
C     -1.685700   -3.082487    1.889278
C     -3.237672    2.913422   -2.351807
C     -4.711544    1.418366   -1.279486
C      0.408489    2.910177    3.551251
C     -0.833274    3.115499    3.015587
C     -1.957089   -2.068462   -0.619473
C     -1.274799   -1.803395    1.612937
C     -2.149911    2.295419   -1.751381
C     -3.626859    0.798767   -0.678057
C      1.242485    1.976704    3.003325
C     -1.233306    2.366542    1.913061
C      3.406796   -1.318737    1.225656
C      3.316848   -0.955384   -1.258336
C     -1.400392   -1.268456    0.356871
C     -2.334732    1.227526   -0.905057
C      0.831448    1.225756    1.891703
C      2.578062   -1.396546   -0.017251
C     -0.416003    1.417465    1.336988
C      1.709487    0.228814    1.298729
N      1.462943   -0.525123    0.285628
O      2.984399   -0.055867    1.764680
P     -0.888854    0.407631   -0.108198
H      4.405837   -2.811346   -1.027494
H      5.449962   -1.351989   -1.069014
H      4.708810   -2.004909   -2.588596
H      3.156167    1.049350   -2.056293
H      3.489647    0.968276   -0.273664
H      4.776130    0.603933   -1.451549
H     -2.578237   -4.906047    1.107158
H     -5.394566    2.953464   -2.583942
H     -2.814548   -3.992347   -1.121959
H     -1.595656   -3.523956    2.873735
H     -3.074263    3.759183   -3.020524
H     -5.729127    1.089813   -1.108085
H      0.786108    3.464744    4.418128
H     -1.476438    3.849753    3.454522
H     -2.091145   -1.718335   -1.640427
H     -0.843463   -1.197220    2.389215
H     -1.132159    2.623517   -1.922389
H     -3.794943   -0.034741   -0.019689
H      2.224581    1.816523    3.429487
H     -2.213959    2.501356    1.458819
H      4.471944   -1.181683    0.965081
H      3.226844   -2.144126    1.936732
H      2.624327   -1.140874   -2.116211
H      2.156157   -2.409564   -0.161688
