65

C     -6.193016    0.775168   -1.940935
C      8.437843    2.250286    2.190720
C     -5.238966    1.901577    2.517430
C      5.519283    0.605917   -0.926279
C     -4.794717    0.639441    2.831790
C     -5.122372    2.356244    1.227595
C      5.693106    2.038079   -0.449524
C     -1.523682   -0.891120    1.535904
C     -0.983391   -1.649935    0.610563
C      1.957468   -1.046965   -1.703232
C      4.718285   -0.221888    0.023946
C      2.224720    0.377450   -1.404196
C     -4.118388    0.281319    0.580049
C     -3.756574   -1.550196    2.246452
C     -0.292563   -2.754228   -2.237737
C     -4.452322    2.086981   -1.137465
C     -4.225939   -0.194723    1.869834
C     -4.563589    1.551152    0.256398
C     -2.294541   -1.431831    2.692889
C     -0.213621   -1.035490   -0.537365
C      1.116249   -1.690555   -0.657146
C     -0.903886   -1.437109   -1.823573
C      0.722498   -3.025234   -1.201782
C      6.387493    2.020081    0.856532
O     -1.824710   -2.650291    3.142622
O     -0.819514   -0.449993   -2.774451
O      1.161776   -4.082357   -0.846363
O      5.725442    1.780644    1.892064
O     -5.657310    2.038712   -1.805246
O      7.729644    2.260228    0.940219
S      3.071428    0.536085    0.206963
H     -5.518844    0.073591   -2.512616
H     -7.164027    0.906740   -2.496273
H     -6.454264    0.322663   -0.982772
H      8.997761    3.171295    2.365581
H      9.164169    1.390013    2.094697
H      7.743032    1.998472    3.026325
H     -5.676593    2.541886    3.261796
H      6.515235    0.117079   -1.059389
H      5.074391    0.674476   -1.936010
H     -4.863588    0.236467    3.830371
H     -5.470090    3.365355    0.944415
H      4.704670    2.528315   -0.387451
H      6.294093    2.633761   -1.154292
H     -1.389432    0.186251    1.434097
H     -1.102294   -2.722724    0.691167
H      2.876233   -1.650861   -1.879534
H      1.422655   -1.085456   -2.696361
H      4.566132   -1.212375   -0.459347
H      5.252234   -0.298790    0.981687
H      2.831965    0.880116   -2.203210
H      1.295012    0.951942   -1.345955
H     -3.674462   -0.346357   -0.209456
H     -4.335135   -1.967413    3.108275
H     -3.867261   -2.255276    1.422742
H      0.239548   -2.662164   -3.212352
H     -1.068272   -3.550384   -2.270840
H     -3.643309    1.527280   -1.691778
H     -4.123994    3.138690   -1.093286
H     -2.214655   -0.675401    3.515522
H     -0.105935    0.043076   -0.397203
H      1.642848   -1.795155    0.319685
H     -1.991356   -1.615221   -1.588214
H     -2.427725   -3.363146    2.791770
H     -1.014876   -0.874193   -3.658880
