43

C     -1.684523   -2.994752   -2.145521
C     -2.953185    0.404250   -1.477204
C      4.533426    0.952034   -0.308607
C     -2.888614   -1.096050   -1.553893
C      3.849046    1.088722   -1.638302
C     -3.136004    1.851607    0.419441
C      3.701999   -0.553481    1.654853
C     -0.644495    1.274938    1.427396
C     -0.782756   -1.602293   -0.519784
C     -2.304441    0.944430   -0.237518
C      3.550687    0.169818    0.483304
C     -1.055391    0.656760    0.270433
C     -0.079133   -0.277031   -0.321099
C     -2.735619    2.466671    1.565083
C      2.613348   -1.180574    2.167498
C     -1.496427    2.178185    2.063859
C      1.191178   -0.391758    0.371442
C      1.369950   -1.103441    1.536595
C      2.325032    0.245204   -0.137810
Cl    -3.728577    3.621079    2.448639
Cl     2.731862   -2.117754    3.652358
Cl     0.002988   -1.925796    2.235476
N     -1.538225   -1.576288   -1.777861
O     -1.030510    2.772439    3.227535
O      2.469202    1.024258   -1.273298
H     -1.941798   -3.120632   -3.197149
H     -0.753589   -3.559617   -1.929532
H     -2.461162   -3.447165   -1.461251
H     -2.331516    0.803049   -2.320903
H     -3.990372    0.748085   -1.542581
H      4.698108    1.960212    0.130930
H      5.521489    0.451107   -0.367558
H     -3.480659   -1.393999   -2.442444
H     -3.362943   -1.589715   -0.677254
H      4.079779    0.285088   -2.345482
H      3.991577    2.101847   -2.085436
H     -4.100881    2.070579    0.023088
H      4.653198   -0.615342    2.141868
H      0.327676    1.054232    1.817220
H     -0.079868   -2.431217   -0.519861
H     -1.578574   -1.681112    0.271225
H      0.113741    0.100587   -1.369488
H     -1.585022    3.432833    3.741593
