58

C     -2.506288   -2.984418   -0.160785
C     -4.781534   -2.597284   -1.131105
C     -5.150090    3.717018    0.868692
C      6.490225   -0.745612    1.440537
C      6.106696    0.668931    1.060000
C      6.011097   -1.733642    0.418017
C      2.208985    0.356150   -1.115337
C      1.304645   -0.364264   -1.730870
C     -1.745489    1.779367    1.104588
C      4.618421    0.705349    0.675183
C      5.507697   -0.996773   -0.808173
C      3.645750    0.381021   -1.532425
C     -0.430961    1.227616    0.467782
C     -3.623527   -2.023508   -0.344528
C     -2.662296    1.389640   -0.004815
C     -0.101266   -0.472942   -1.430413
C     -3.172776   -0.672340   -0.948921
C     -2.205264   -0.075235   -0.066704
C     -4.396853    0.195822   -0.711073
N      4.479142   -0.075806   -0.490780
N     -0.848691    0.181949   -0.440442
N     -4.031521    1.218954    0.219835
O     -0.729006   -1.306881   -2.197786
O     -5.518087   -0.000770   -1.266682
O     -6.469713    1.365022    1.218627
O     -4.581237    1.846901    2.715881
S     -5.122473    1.994447    1.318190
H     -2.731780   -3.686563    0.649081
H     -2.231763   -3.484147   -1.114474
H     -1.608434   -2.405571    0.158138
H     -4.568671   -3.684519   -1.258433
H     -4.933036   -2.101889   -2.098984
H     -5.742518   -2.537147   -0.575113
H     -4.740190    3.874230   -0.168762
H     -6.185202    4.115484    0.853525
H     -4.578913    4.275001    1.612407
H      6.045286   -0.942471    2.450104
H      7.597989   -0.795060    1.495635
H      6.703086    0.929827    0.161999
H      6.295033    1.335966    1.920128
H      5.188208   -2.378846    0.838292
H      6.834961   -2.387635    0.081256
H      1.960026    0.952127   -0.272182
H      1.707708   -0.949561   -2.584271
H     -1.644660    2.878436    1.115783
H     -1.934780    1.329323    2.074427
H      4.325514    1.757432    0.517721
H      4.051337    0.261809    1.534799
H      6.368919   -0.487586   -1.265769
H      5.128174   -1.723498   -1.561623
H      3.827220   -0.274080   -2.429095
H      3.971939    1.396573   -1.837173
H      0.050032    2.076988   -0.072326
H      0.173014    0.774087    1.262497
H     -4.020969   -1.760864    0.667559
H     -2.364607    1.935285   -0.911260
H     -2.966370   -0.769912   -2.009249
H     -2.272139   -0.501931    0.964199
