52

C     -6.794816   -0.039398    1.660488
C     -5.609224    0.578752    2.067525
C      6.885722    1.550239   -0.413035
C      6.193693    0.441928    0.089665
C     -6.876280   -0.446975    0.328717
C     -4.581288    0.765241    1.172794
C     -5.898844   -0.645939   -1.863441
C     -4.832484   -0.433753   -2.723036
C     -1.196926   -1.218302   -1.256096
C     -0.556365   -1.986864   -0.309045
C      6.603594    2.808623    0.060731
C      4.517019   -0.553906    1.584614
C      0.401921    0.499041   -0.941942
C      4.981119    1.878167    1.501771
C      2.680313   -2.161443    1.484153
C     -2.528459    0.413124   -3.226763
C      5.228673    0.607602    1.059599
C     -5.823288   -0.242089   -0.538330
C      3.282175   -0.942434    0.814528
C     -3.673783    0.178341   -2.296747
C     -0.726550    0.023387   -1.578484
C      1.054957   -0.252066    0.005044
C     -4.645117    0.369634   -0.142986
C      0.584287   -1.509376    0.336525
C      2.275647    0.184857    0.734343
N      5.651839    2.957107    1.015168
N     -3.626920    0.561921   -1.000369
O      1.994789    0.606061    2.015137
O     -1.367017    0.790186   -2.522294
O      1.278683   -2.220188    1.294582
H     -7.618187   -0.202626    2.328333
H     -5.526227    0.901416    3.094106
H      7.653036    1.436154   -1.181685
H      6.471226   -0.513481   -0.332056
H     -7.796838   -0.926669    0.012372
H     -3.684764    1.243837    1.520497
H     -6.814745   -1.124938   -2.182918
H     -4.885436   -0.744188   -3.749810
H     -2.067953   -1.600639   -1.747384
H     -0.903565   -2.953925   -0.042152
H      7.106784    3.708488   -0.290171
H      4.187133   -0.409956    2.645597
H      5.197010   -1.454249    1.649422
H      0.812920    1.486275   -1.168979
H      4.248384    2.092797    2.258803
H      2.887900   -2.196224    2.573310
H      3.131236   -3.102422    1.063964
H     -2.260245   -0.557454   -3.740545
H     -2.779050    1.109156   -4.030567
H      3.544141   -1.233105   -0.227068
H      2.722391    1.018389    0.168829
H      1.497779    1.461885    2.059017
