43

C     -1.784870    3.442632   -1.073587
C     -3.163093    0.641901    0.866878
C      4.568743   -0.681757   -0.866311
C     -2.731870    1.974022    0.459081
C      3.948010   -0.027797   -2.072394
C     -3.208963   -1.634487    0.486503
C      3.590125   -0.514907    1.573535
C     -0.731827   -1.916124   -0.522844
C     -0.496308    1.757671   -0.114350
C     -2.405771   -0.510406    0.371596
C      3.546164   -0.476072    0.185531
C     -1.159766   -0.663066   -0.138007
C     -0.113330    0.355230   -0.365445
C     -2.784935   -2.886380    0.103391
C      2.450628   -0.278651    2.309117
C     -1.512463   -3.046984   -0.417875
C      1.173795    0.046310    0.284180
C      1.252685   -0.000167    1.647787
C      2.353095   -0.199321   -0.432089
Cl    -3.798905   -4.312026    0.247241
Cl     2.512642   -0.328811    4.049136
Cl    -0.163277    0.278292    2.622118
N     -1.832752    2.028592   -0.670359
O     -1.078385   -4.298614   -0.804847
O      2.549126   -0.213188   -1.823242
H     -2.733571    3.794152   -1.479112
H     -1.632313    3.998567   -0.101838
H     -0.897078    3.655762   -1.678357
H     -4.239849    0.491046    0.560524
H     -3.184526    0.573160    1.981604
H      4.750710   -1.758061   -1.038956
H      5.533127   -0.195766   -0.592459
H     -2.199176    2.506220    1.301616
H     -3.600209    2.632155    0.218200
H      4.186724   -0.632753   -2.967450
H      4.218642    1.026327   -2.160973
H     -4.227896   -1.563863    0.893772
H      4.550567   -0.736454    2.022453
H      0.271415   -2.041263   -0.933574
H      0.248361    2.403960   -0.671144
H     -0.432377    2.114419    0.927360
H      0.105424    0.285857   -1.482993
H     -1.696473   -5.089354   -0.703415
