40

C     -2.295409   -1.783990    1.698940
C     -1.009883    3.967016    0.256902
C      2.931341    0.407611   -1.084893
C     -2.119425   -1.910870   -1.289902
C      4.081557    0.851427   -0.472729
C     -2.814790   -0.661183   -0.732884
C      2.019404   -0.051593    1.026338
C      0.333486   -1.994433   -0.696470
C      1.845069   -0.066303   -0.337886
C     -1.092114   -2.224706   -0.259089
C      0.592139   -0.557043   -0.985806
C      4.209895    0.847168    0.896781
C      3.161883    0.388098    1.662125
C     -1.656181   -0.105138    0.105055
C     -0.572335    0.366334   -0.791967
C     -0.180045    1.740569   -0.369367
Cl     5.649020    1.400258    1.716149
Cl     3.295784    0.370394    3.411691
N     -1.274933   -1.278492    0.853950
O      0.963038    2.163267   -0.199278
O     -1.238488    2.626326   -0.148877
H     -2.877106   -2.580094    1.199069
H     -2.945727   -1.009623    2.150190
H     -1.795707   -2.291354    2.573747
H     -1.276753    4.122484    1.323604
H      0.040764    4.262622    0.098644
H     -1.661252    4.629539   -0.368653
H      2.828674    0.409902   -2.153200
H     -1.698201   -1.708769   -2.295465
H     -2.898504   -2.701334   -1.295287
H      4.906175    1.212043   -1.060515
H     -3.127388    0.025633   -1.518359
H     -3.636575   -0.911160   -0.058309
H      1.233102   -0.398845    1.664642
H      0.954460   -2.400330    0.134882
H      0.602718   -2.634169   -1.574457
H     -1.177451   -3.271618    0.110188
H      0.826520   -0.519266   -2.096049
H     -2.060376    0.709381    0.703352
H     -1.066385    0.560242   -1.796808
