47

C     -4.558390   -0.104193   -1.284611
C     -4.681166    0.234732    1.069901
C      5.334181   -0.366117    0.192382
C      4.305946    1.720579   -0.184845
C      6.514590    0.110658   -0.328806
C      5.495623    2.193460   -0.707259
C     -5.278401    1.059852   -1.458380
C     -5.401190    1.398990    0.900079
C     -1.498066   -0.672574    1.327460
C     -1.401057   -1.167111   -1.032684
C     -0.128494   -0.098944    1.006139
C      0.062780   -1.568303   -0.913991
C     -3.505031   -1.735720    0.242900
C      1.916475   -0.390310   -0.200670
C     -4.262004   -0.512199   -0.008658
C     -2.029481   -1.594458    0.288681
C      4.195315    0.421399    0.280826
C      6.615775    1.404806   -0.789616
C     -5.701007    1.812521   -0.386374
C      2.931988   -0.127871    0.852159
Cl     8.131973    2.022409   -1.458632
F     -6.409024    2.958671   -0.555280
N      0.676934   -0.959272    0.227167
O      2.455075    0.787306    1.779511
H     -4.250810   -0.658280   -2.170609
H     -4.450369   -0.088285    2.095905
H      5.283934   -1.406293    0.553096
H      3.434248    2.391433   -0.140743
H      7.399123   -0.508527   -0.394834
H      5.563306    3.223955   -1.070383
H     -5.509428    1.373896   -2.485075
H     -5.717993    1.964858    1.745473
H     -2.162757    0.192202    1.496599
H     -1.457655   -1.226498    2.302650
H     -1.488944   -0.065642   -1.101892
H     -1.876800   -1.678855   -1.891202
H     -0.258145    0.925435    0.559185
H      0.346190    0.058997    1.997831
H      0.062056   -2.680037   -0.708426
H      0.557789   -1.336261   -1.877593
H     -3.817527   -2.271886    1.163464
H     -3.737969   -2.446424   -0.597186
H      1.781859    0.509532   -0.842670
H      2.376245   -1.151938   -0.904044
H     -1.613647   -2.621115    0.472162
H      3.229632   -1.050839    1.410127
H      2.524319    1.722261    1.530765
