47

C      0.603629    4.107652    0.007449
C      0.327588    2.874303   -1.963140
C      5.163632   -2.165775    1.790026
C     -3.831240   -1.963239   -0.078199
C     -3.873009   -0.541335    0.398979
C     -2.439769   -2.553820    0.059261
C      1.425805   -0.337467    1.081937
C      1.780571   -0.505304   -1.238782
C      2.648449   -0.935550    1.333165
C      2.997481   -1.100551   -1.000817
C     -2.821997    0.246292   -0.361549
C     -1.408198   -1.696266   -0.642878
C     -0.393108    1.925694    0.098438
C      0.964066   -0.108751   -0.207421
C      3.442752   -1.321243    0.297254
C     -0.371754    0.544555   -0.443720
C     -1.487647   -0.312797    0.032905
N      0.643995    2.765715   -0.537351
O     -1.413870   -0.601028    1.396930
O      4.678094   -1.925397    0.491081
H      1.187018    4.225020    0.925960
H      0.997275    4.844917   -0.730819
H     -0.455667    4.391734    0.176762
H      0.521197    3.886797   -2.345384
H      0.927712    2.144154   -2.513664
H     -0.757129    2.646613   -2.132521
H      4.396061   -2.760335    2.365717
H      6.108850   -2.748521    1.676942
H      5.380159   -1.214749    2.312317
H     -4.481250   -2.555204    0.630869
H     -4.242533   -2.117873   -1.078176
H     -4.873694   -0.132365    0.168630
H     -3.725472   -0.514974    1.487951
H     -2.461893   -3.557569   -0.407489
H     -2.190018   -2.637281    1.134114
H      0.839717   -0.053084    1.932609
H      1.436993   -0.334981   -2.256946
H      2.966384   -1.093338    2.344847
H      3.630367   -1.407881   -1.818710
H     -2.984839   -0.041592   -1.444633
H     -2.953744    1.316328   -0.279456
H     -1.657442   -1.614108   -1.716507
H     -0.423284   -2.161189   -0.480590
H     -0.169985    1.983927    1.183689
H     -1.364994    2.427762   -0.042759
H     -0.473534    0.597152   -1.567255
H     -1.811725    0.084950    1.960937
