30

C      0.496543    2.059340    1.691578
C     -0.110444    1.709743    0.377696
C     -2.373941    0.363761   -1.113657
C      1.685647   -0.560708   -1.200691
C      1.763223   -0.857079    1.124305
C     -0.892163    0.162577   -1.305409
C      2.939449   -1.169887   -1.304816
C      3.003584   -1.458578    1.011381
C      1.074472   -0.393783    0.022468
C     -2.872256   -0.935652   -0.532328
C     -1.176739   -0.465272    1.000221
C     -0.252327    0.252211    0.090121
N      3.547613   -1.593743   -0.197881
N     -2.228242   -1.302799    0.534616
O     -3.901576   -1.632070   -1.097502
O     -0.995407   -0.304384    2.257127
H      1.502920    1.626623    1.864757
H     -0.162216    1.846782    2.544334
H      0.610352    3.185441    1.691877
H     -1.061470    2.267201    0.286336
H      0.579940    2.116864   -0.417220
H     -2.908720    0.602634   -2.049269
H     -2.624052    1.131902   -0.358753
H      1.222989   -0.230653   -2.112861
H      1.315556   -0.744730    2.088881
H     -0.449165    0.922095   -1.981484
H     -0.688681   -0.862712   -1.670752
H      3.410902   -1.296557   -2.267213
H      3.521912   -1.812529    1.888911
H     -3.977700   -2.626039   -0.864773
