29

C     -1.390880   -1.566500    0.564097
C      0.978498   -1.360903    0.403132
C     -2.442368   -0.448429    0.512474
C      1.886046   -0.228681    0.722536
C     -0.518608    0.275731   -0.558257
C     -1.493721    0.758019    0.525199
C      1.960724    0.679121   -0.486367
C      0.593901    1.203335   -0.759881
N     -0.255059   -1.044348   -0.178611
O     -3.036947   -0.526666   -0.726361
O      3.173059   -0.742314    0.922231
O     -2.109272    1.911799    0.119957
O      2.821269    1.762196   -0.274969
O      0.607542    1.734149   -2.070961
H     -1.125183   -1.660751    1.640984
H     -1.808179   -2.477816    0.138874
H      0.804075   -1.936800    1.346715
H      1.531210   -2.075018   -0.272148
H     -3.113352   -0.464605    1.362001
H      1.582257    0.349731    1.617155
H     -1.145591    0.253877   -1.499069
H     -1.009105    0.810780    1.513235
H      2.326869    0.086007   -1.353705
H      0.452025    2.110067   -0.100867
H     -2.638046   -1.229706   -1.319054
H      3.258912   -1.620635    0.455049
H     -3.073856    1.951909    0.285234
H      2.318209    2.519821    0.141380
H      0.865571    0.976632   -2.670002
