39

C     -4.131149    0.719948   -0.726023
C     -3.270776   -1.319964    0.306146
C      0.787344    2.571824    0.772308
C      1.858847   -1.720474   -0.117907
C      3.177733    0.204933    0.183918
C      3.001635   -2.511083   -0.146873
C      4.338892   -0.576725    0.157111
C      0.641802    1.205460    1.440023
C      0.955193    1.825037   -0.551755
C     -1.740612    0.582269   -0.335291
C     -2.944005   -0.256174   -0.710111
C      1.941951   -0.356957    0.048313
C      4.258655   -1.940320   -0.008487
C     -0.493281   -0.274111   -0.283664
C      0.714821    0.509536    0.091204
Cl     5.679682   -2.931954   -0.041466
N     -0.286668   -0.787196   -1.633426
H     -4.374646    0.895620    0.346017
H     -3.740266    1.664330   -1.149348
H     -4.980983    0.306925   -1.300452
H     -2.454707   -1.974592    0.587563
H     -4.039312   -1.986365   -0.184248
H     -3.716511   -0.899067    1.232952
H      1.683314    3.136946    1.095380
H     -0.110449    3.213460    0.833764
H      0.913704   -2.231967   -0.227053
H      3.343850    1.251414    0.319856
H      2.876507   -3.584299   -0.279218
H      5.311688   -0.118756    0.265660
H     -0.321559    1.142402    1.947217
H      1.471843    0.995933    2.115697
H      1.977182    2.012203   -0.967940
H      0.201559    2.187819   -1.280834
H     -1.978965    1.067707    0.632501
H     -1.667597    1.361908   -1.143099
H     -2.829511   -0.760424   -1.688503
H     -0.654647   -1.060767    0.461416
H     -0.951492   -1.555580   -1.873613
H     -0.449071   -0.008902   -2.309527
