29

C      4.535819   -0.023168    0.138885
C      3.773658   -1.109783   -0.214847
C      3.975923    1.189052    0.429789
C     -3.867977   -0.144121   -1.420226
C     -4.576848   -0.025777   -0.248434
C      2.401302   -0.925899   -0.265408
C      2.606228    1.332897    0.368455
C     -2.520254   -0.418351   -1.358592
C     -3.892782   -0.190202    0.956696
C     -0.392215   -0.876524   -0.093047
C      1.808397    0.276016    0.020245
C     -1.847019   -0.580556   -0.154744
C      0.367501    0.432422   -0.042821
N     -0.167681    1.159629    1.114784
N     -2.569500   -0.458448    0.970371
H      5.620756   -0.090081    0.200343
H      4.240086   -2.058840   -0.440525
H      4.583733    2.042434    0.708266
H     -4.401378   -0.016216   -2.345683
H     -5.633703    0.187009   -0.192082
H      1.814287   -1.796820   -0.547117
H      2.172390    2.294690    0.600031
H     -1.934379   -0.517484   -2.265153
H     -4.461815   -0.094951    1.885434
H     -0.158797   -1.523699    0.775649
H     -0.134708   -1.441390   -1.028443
H      0.033466    1.012930   -0.944437
H     -0.524712    0.483025    1.825225
H     -0.849780    1.882208    0.845273
