21

C      4.028097    0.216682   -0.025273
C      2.795866   -0.207155    0.218448
C      1.931766   -0.726031   -0.885567
C     -0.534139    0.001234    0.479621
C     -1.835445    0.769078    0.500082
C     -2.672361    0.352495   -0.629953
N     -2.513885    0.437754    1.746125
O     -2.226529    0.575174   -1.792411
O     -3.889265   -0.253680   -0.405076
S      0.412301    0.275746   -1.036807
H      4.410337    0.185463   -1.036815
H      4.660305    0.593224    0.767548
H      2.441870   -0.162236    1.244971
H      2.448185   -0.665614   -1.855463
H      1.692363   -1.780011   -0.606604
H     -0.670738   -1.056404    0.706682
H      0.105867    0.409897    1.317711
H     -1.616153    1.861506    0.515970
H     -1.839119    0.463774    2.551485
H     -2.767103   -0.589740    1.663708
H     -4.362220   -0.701156   -1.186873
