14

C     -0.612896   -0.073796    0.344055
C      0.568018    0.560541   -0.331222
C     -1.900237    0.378180   -0.196207
C      1.797406    0.006283    0.322613
Cl     0.575686    2.315203   -0.280117
O     -2.332759    1.520337    0.075658
O     -2.645909   -0.445157   -1.006818
O      1.740438   -0.842860    1.253016
O      3.080333    0.397568   -0.060142
H     -0.468899   -1.182384    0.256088
H     -0.525270    0.137821    1.440048
H      0.610009    0.230975   -1.405635
H     -3.668915   -0.407437   -1.051664
H      3.782994    0.624345    0.640327
