26

C      3.307532    0.095563    0.875086
C     -3.133155    0.405002    0.873281
C      2.483104    0.797738   -0.158871
C      1.312846   -0.066184   -0.612722
C      0.446670   -0.371189    0.575947
C     -0.710014   -1.203554    0.174386
C     -1.621061   -0.578492   -0.824393
C     -2.297164    0.678497   -0.375431
Cl    -1.230497    2.026310   -0.097778
H      4.375384    0.253940    0.630509
H      3.110514   -0.994618    0.822365
H      3.071928    0.491037    1.905269
H     -3.959517   -0.302731    0.626648
H     -2.507557    0.004048    1.696316
H     -3.549717    1.404193    1.176232
H      3.087223    1.091833   -1.057438
H      2.109805    1.750202    0.276490
H      0.783875    0.368551   -1.450487
H      1.788987   -1.016085   -0.983895
H      1.081778   -1.018286    1.264031
H      0.238053    0.518909    1.171744
H     -0.327083   -2.169817   -0.228923
H     -1.273713   -1.504902    1.094592
H     -1.075461   -0.356644   -1.769278
H     -2.449003   -1.302458   -1.054112
H     -3.063756    0.999136   -1.145933
