21

C      0.161587    0.427253    1.258766
C      0.120269   -1.097733   -0.623801
C      0.967244   -0.567437    0.489706
C     -0.989458    0.691122    0.347877
C     -1.276617   -0.613965   -0.246802
C     -1.553902    1.879309    0.184994
C      2.251522   -0.021283   -0.012629
F     -2.605877    2.045020   -0.667705
F     -1.130708    2.985208    0.842338
N     -2.157991   -0.587113   -1.373914
O      2.556662    0.032779   -1.224142
O      3.169221    0.457597    0.906723
H      0.700629    1.368288    1.472335
H     -0.260316   -0.044691    2.175012
H      0.390401   -0.639365   -1.600455
H      0.157528   -2.205117   -0.663135
H      1.235642   -1.411164    1.177467
H     -1.622973   -1.298484    0.566533
H     -1.570629   -0.598131   -2.257348
H     -2.657094   -1.526935   -1.393388
H      4.114859    0.724843    0.641568
