54

C      4.781361    3.163656   -0.403508
C     -6.463742   -0.129156   -0.827215
C     -5.218862    0.436833   -0.757896
C     -7.167218   -0.335727    0.332127
C     -3.478272    1.486995    2.099132
C     -4.639546    1.015576    2.626336
C     -2.429827    1.760637   -0.102935
C     -0.875613    0.173309    0.927960
C     -1.447998    0.674025   -0.356255
C     -4.670445    0.797647    0.451282
C      4.153735   -0.272858    0.279451
C      1.401985   -2.177389   -1.362959
C     -1.142189    0.245639   -1.540660
C      4.817967   -1.422497    0.948252
C      2.970701   -0.483919   -0.532563
C      0.814535   -1.391450   -2.464842
C      0.018446   -1.890146   -0.750745
C     -1.740695    0.805056   -2.741979
C      6.543888   -2.085032    2.297177
N      7.554830   -2.214819    3.044210
N     -6.580792    0.036015    1.477454
N      2.464052   -1.570216   -0.707505
N      5.877541   -1.250568    1.679826
N      4.653227    0.918879    0.437232
N      4.364806   -2.669866    0.831222
N     -3.502258    1.349349    0.745388
N     -5.387243    0.581544    1.574244
N     -0.188282   -0.813454   -1.700992
O      2.406673    0.657065   -1.135120
O      1.143799   -1.302387   -3.686209
O     -2.568211    1.709969   -2.853840
O     -1.318730    0.235045   -3.977414
O      4.030615    1.974467   -0.185967
S      0.269948   -1.149838    0.890660
S      5.534027   -3.605448    1.826269
Cl     0.688022    0.000000    0.000000
H      4.115573    3.960753   -0.766722
H      5.245803    3.503679    0.533668
H      5.601827    2.944232   -1.138921
H     -6.928456   -0.427099   -1.770073
H     -4.684630    0.586373   -1.695062
H     -8.161080   -0.780424    0.352404
H     -2.672832    1.900546    2.657293
H     -4.967765    0.966475    3.672494
H     -2.786051    2.284027   -0.967908
H     -1.808182    2.563322    0.451798
H     -0.492472    1.046785    1.531368
H     -1.782079   -0.171466    1.516024
H      1.517397   -3.272778   -1.607280
H     -0.689516   -2.727168   -0.798645
H      7.854762   -3.139816    3.413753
H      3.547649   -3.138264    0.322916
H      2.107837    0.643884   -2.086723
H     -0.688022    0.000000    0.000000
