54

C     -2.448379    3.018793    0.203116
C      5.117638    3.152710   -0.876894
C      4.716674    2.035741   -0.191295
C      5.363155    3.034305   -2.224675
C      4.250232   -1.207662   -1.594348
C      4.640688   -0.462588   -2.674286
C      3.835391   -0.783943    0.807366
C      1.784828    0.673784    0.853774
C      2.349877   -0.706590    1.019023
C      4.583369    0.849520   -0.907896
C     -4.457036    0.040544    0.002580
C     -1.676982   -1.260506    2.086772
C      1.647607   -1.783649    1.289465
C     -5.699562   -0.444870   -0.637052
C     -3.631167   -0.854258    0.767546
C     -1.037231   -2.353814    1.312479
C     -0.329270   -0.668512    2.306623
C      2.283885   -3.112772    1.388924
C     -7.461076    0.136346   -1.904111
N     -8.418122    0.648750   -2.648223
N      5.221647    1.874781   -2.867356
N     -2.528682   -0.369896    1.306626
N     -6.465473    0.349687   -1.341612
N     -4.092472    1.287451   -0.123358
N     -6.116987   -1.740479   -0.530866
N      4.223443   -0.378018   -0.527033
N      4.835971    0.789732   -2.220671
N      0.213866   -1.770977    1.510440
O     -3.949469   -2.171147    0.950405
O     -1.436480   -3.398469    0.709051
O      1.506376   -4.103908    1.659605
O      3.583917   -3.444299    1.232696
O     -2.960102    1.736426    0.458214
S      0.088577    0.812758    1.356569
S     -7.639768   -1.692898   -1.497226
Cl     0.685151    0.000000    0.000000
H     -3.023981    3.560281   -0.591766
H     -1.398608    2.954269   -0.124583
H     -2.533432    3.682720    1.107235
H      5.232503    4.092596   -0.356128
H      4.522548    2.090737    0.872883
H      5.684601    3.894754   -2.815198
H      3.996229   -2.255832   -1.527231
H      4.757623   -0.844689   -3.681403
H      4.204680    0.082352    1.480702
H      4.365548   -1.620383    1.156692
H      2.383691    1.367300    1.496890
H      1.954260    1.030391   -0.195563
H     -2.159402   -1.603807    3.033858
H      0.012816   -0.645637    3.365046
H     -8.339800    1.651392   -2.883445
H     -5.770391   -2.568963   -0.079135
H     -3.787768   -2.599553    1.869482
H     -0.685151    0.000000    0.000000
