51

C     -7.867129   -0.842595   -0.940055
C      6.238008   -2.312205    2.006357
C     -2.008241   -0.700044    0.763160
C     -5.063844   -0.028734    1.547738
C      5.667911   -1.328781    1.140032
C     -2.394627    0.693620    0.448234
C     -6.490577   -0.823762   -0.928306
C      4.200269   -1.379465    0.870946
C      1.493356    0.307243   -0.994800
C     -1.562262    1.573881   -0.114402
C      3.490051   -0.460977    0.016810
C      1.157925    1.649215   -0.454389
C      0.027350    0.003849   -1.190968
C     -2.096339    2.932926   -0.363492
C      7.776438   -0.417011    0.891250
N      8.754494    0.310136    0.545081
N     -8.256681   -0.328500   -2.107500
N      6.489446   -0.453690    0.648557
N      2.204148   -0.587231   -0.158221
N     -6.106041   -0.298686   -2.089842
N      3.524039   -2.330186    1.457115
N     -7.177398   -0.001068   -2.799216
N     -0.223965    1.248294   -0.478143
O      4.099541    0.567837   -0.642744
O      1.734376    2.708354   -0.106207
O     -3.269588    3.268384   -0.075626
O     -1.307268    3.913907   -0.936348
O      2.160958   -2.413065    1.234343
S     -0.647911   -1.330236   -0.229759
S      7.949718   -1.855263    2.019378
S     -4.073659    1.266676    0.824458
S     -5.422691   -1.396525    0.409604
Cl     0.683100    0.000000    0.000000
O     -0.000249    0.406320   -0.000000
H     -8.532003   -1.197255   -0.172551
H      5.747165   -3.130038    2.523536
H     -1.625535   -0.674184    1.830699
H     -2.908887   -1.349722    0.711612
H     -4.679066   -0.407816    2.516647
H     -6.063849    0.429931    1.797222
H      1.963794    0.410378   -2.018330
H     -0.302515    0.025108   -2.267784
H      8.633829    1.119002   -0.094126
H      6.118656    0.334442   -0.027250
H     -5.112965   -0.153959   -2.372832
H      3.674106    1.179613   -1.287461
H     -1.432812    4.869858   -0.660454
H      1.520275   -2.611658    1.987036
H     -0.683100    0.000000    0.000000
H      0.791682   -0.203077    0.000000
H     -0.791434   -0.203243   -0.000000
