50

C     -7.569773   -0.556853    0.922696
C      7.637498   -0.905134    0.943107
C      6.818303   -1.221843   -0.119782
C      7.301946    0.110706    1.787841
C      5.652176   -0.521154   -0.346289
C      6.116360    0.818991    1.553112
C      3.634969    2.233387    1.320802
C      2.790851    3.302110    0.653553
C     -5.329376   -1.068648   -0.059362
C     -2.843262   -1.562188    0.683756
C      0.277022   -0.725331   -0.772701
C     -6.572982   -0.507075   -0.196300
C      5.290695    0.522546    0.506969
C      4.058099    1.257576    0.273577
C     -3.148102   -1.649312   -0.813064
C     -1.016302   -1.456136   -0.601156
C     -6.895326    0.108941   -1.386719
C     -4.755283   -0.430945   -2.198157
N     -5.971651    0.127143   -2.353438
N     -4.414876   -1.037537   -1.048955
O     -8.144562    0.690104   -1.566533
O     -3.897077   -0.404104   -3.120626
O      1.988205    1.466207   -2.091211
O     -1.458522   -1.500285    0.701753
O      1.647332    2.866651    0.066512
O      0.211979    0.602033   -0.362672
O     -2.067810   -0.891450   -1.321433
O      2.967179    0.404631    0.043038
P      1.740641    1.331479   -0.604551
H     -7.731164   -1.591482    1.268053
H     -7.234397    0.050186    1.787229
H     -8.526484   -0.147395    0.578201
H      8.568164   -1.437601    1.153827
H      7.150696   -2.042647   -0.749314
H      7.903479    0.408021    2.640668
H      5.023863   -0.785342   -1.185541
H      5.924224    1.616608    2.283172
H      4.453591    2.786170    1.817935
H      3.076066    1.715183    2.128834
H      2.567652    4.075261    1.426043
H      3.452365    3.801907   -0.091861
H     -5.109369   -1.549878    0.902733
H     -3.255789   -0.597087    1.041512
H     -3.250883   -2.429921    1.236018
H      0.590769   -0.736678   -1.828585
H      1.035681   -1.240556   -0.150775
H      4.173287    1.811342   -0.713137
H     -3.085584   -2.696029   -1.160723
H     -0.889416   -2.485718   -0.996974
H     -8.885101    0.071147   -1.881080
