29

C     -2.228938    1.785342   -0.067439
C     -1.996296   -2.479061   -0.025829
C      3.813908   -0.479969   -0.026559
C      2.294841   -0.644147   -0.257754
C     -1.675340    0.527761   -0.700262
C     -0.780150   -1.572358    0.140071
C     -1.267940    2.722264    0.511779
Br    -1.282792   -4.279375   -0.040523
Cl     4.574544    0.677855   -1.061691
N      1.651855    0.613403   -0.170226
N     -1.102249   -0.213643    0.374887
O      0.754704    0.120748    2.218864
O     -0.135801    2.275730    1.085617
P      0.280978    0.683503    0.852125
H     -2.839014    2.289795   -0.851013
H     -2.948227    1.458037    0.727384
H     -2.470711   -2.329253   -1.023650
H     -2.675903   -2.385296    0.816328
H      4.227255   -1.495903   -0.158002
H      3.870370   -0.270772    1.075970
H      1.970474   -1.415341    0.417623
H      2.249879   -1.023751   -1.319552
H     -0.860636    0.859793   -1.400266
H     -2.468713    0.016229   -1.241902
H     -0.270845   -1.968939    1.038488
H     -0.151355   -1.666191   -0.779349
H     -1.811281    3.324291    1.299956
H     -0.997878    3.485996   -0.263675
H      2.275265    1.383256   -0.056014
