50

C     -7.924996   -1.723393    0.638100
C      5.445115   -2.020767   -0.538974
C      4.728205   -0.854996   -0.303079
C      6.774981   -2.083501   -0.224015
C      4.572160    2.421565   -0.670271
C      3.281187    3.044112   -1.045277
C      6.642605    0.182412    0.554490
C     -5.512835   -1.384839    0.101593
C     -2.454434   -1.413528    0.952130
C     -0.156883    0.333273   -0.437669
C     -6.778022   -0.842622    0.251355
C      5.302028    0.273667    0.247038
C      7.372613   -0.973547    0.325430
C      4.567208    1.536015    0.510746
C     -3.176013   -1.290804   -0.375372
C     -1.016335   -0.894045   -0.668887
C     -6.958960    0.512095    0.039194
C     -4.653234    0.674365   -0.444137
Cl     9.071746   -1.064760    0.723885
N     -5.879119    1.238483   -0.306113
N     -4.450599   -0.639358   -0.243742
O     -8.217290    1.047536    0.188845
O     -3.680249    1.392938   -0.766991
O      1.061746    2.351164    1.008042
O     -1.129039   -1.567072    0.520113
O      2.289753    2.062880   -1.278312
O      1.112944   -0.022450    0.013815
O     -2.269968   -0.585677   -1.129924
O      3.377505    1.230697    1.081135
P      1.988346    1.401339    0.240526
H     -7.816666   -2.647048    0.030157
H     -8.884192   -1.255411    0.411022
H     -7.829209   -2.052370    1.702499
H      4.945425   -2.880338   -0.973834
H      3.685360   -0.807865   -0.550923
H      7.300244   -3.008672   -0.422310
H      4.923392    1.817054   -1.558861
H      5.333188    3.245617   -0.596548
H      3.405578    3.563146   -2.017577
H      2.876874    3.708332   -0.260944
H      7.159508    1.036544    0.991763
H     -5.423522   -2.450984    0.279003
H     -2.510015   -0.462081    1.485474
H     -2.797802   -2.285375    1.536222
H     -0.005665    0.878228   -1.399303
H     -0.608182    0.989335    0.344322
H      5.164227    2.065245    1.316070
H     -3.356245   -2.296182   -0.808951
H     -0.473654   -1.516299   -1.419016
H     -8.418810    2.017942    0.351253
