50

C     -7.892555   -0.235131   -0.868916
C      6.759664    2.226436   -0.727012
C      5.485282    1.855811   -0.397613
C      7.844447    1.362382   -0.567542
C      3.756980   -1.336489    0.480171
C      2.458344   -1.785451   -0.251895
C      6.348693   -0.255915    0.256894
C     -5.506510   -0.611921   -0.290540
C     -2.333001   -0.846361    1.371850
C     -0.426279   -0.122515   -1.533937
C     -6.532872    0.264893   -0.490904
C      5.252620    0.555185    0.117695
C      7.637210    0.110976   -0.074858
C      3.882449    0.152352    0.435458
C     -3.259121   -1.151195    0.201698
C     -1.116514   -0.934851   -0.465889
C     -6.319681    1.593921   -0.335811
C     -4.096772    1.142208    0.205564
Cl     8.928511   -1.084955    0.145959
N     -5.097929    2.046166    0.015594
N     -4.281300   -0.167252    0.054714
O     -7.348482    2.549721   -0.537410
O     -3.013478    1.678908    0.534500
O      1.542848    1.253564    1.392507
O     -1.355598   -0.126750    0.654861
O      1.411252   -1.217252    0.463666
O      0.258615    0.915523   -0.878564
O     -2.428720   -1.186168   -0.941115
O      3.002656    0.658466   -0.612074
P      1.487827    0.462674    0.055633
H     -8.169588    0.249208   -1.812402
H     -8.577649   -0.014815   -0.032957
H     -7.849118   -1.331918   -0.988227
H      6.986588    3.219264   -1.116630
H      4.626293    2.522210   -0.513254
H      8.850851    1.694277   -0.860632
H      4.537972   -1.889838   -0.070599
H      3.610175   -1.697273    1.539162
H      2.483325   -1.399456   -1.266261
H      2.419296   -2.892998   -0.249780
H      6.174774   -1.258639    0.670464
H     -5.735126   -1.681326   -0.405275
H     -2.761378   -0.192124    2.131605
H     -1.851320   -1.758602    1.767951
H     -1.173775    0.310195   -2.204794
H      0.279297   -0.738202   -2.084834
H      3.565328    0.589233    1.403120
H     -3.699876   -2.136490    0.404378
H     -0.646460   -1.881744   -0.305817
H     -8.118196    2.522052    0.127401
