39

C      2.541281    1.032035   -2.102225
C     -5.068124    1.644443    1.638641
C     -4.893364    0.404702    2.214942
C     -4.507449    1.922841    0.406192
C     -4.157796   -0.546658    1.551316
C      1.943285   -1.421237    0.617309
C      0.687140   -1.912548    0.273617
C      0.034696    0.017912   -2.756392
C      4.815911   -0.020016    1.059345
C      1.932294   -0.003027   -1.233452
C     -3.767293    0.972636   -0.266705
C     -3.601182   -0.254611    0.316445
C      0.692858   -0.492440   -1.566995
C      2.617182   -0.466189   -0.095726
C     -2.541564   -0.276329   -1.615550
C      4.563273    0.353165    2.480193
F      4.148398    1.694159    2.510234
F      5.824705    0.395921    3.115343
F      3.724121   -0.426979    3.187185
N      0.092438   -1.425373   -0.824259
N     -3.110621    0.930969   -1.443681
N     -2.852130   -0.983472   -0.533330
O     -1.378956   -2.229844   -2.894588
O      3.820107    0.061520    0.156648
S     -1.598808   -0.709472   -3.072351
H      3.646636    1.056253   -1.924902
H      2.087614    2.022303   -1.970748
H      2.428032    0.740706   -3.183572
H     -5.659032    2.380609    2.192084
H     -5.342728    0.193273    3.194266
H     -4.660867    2.892448   -0.013762
H     -4.001891   -1.520968    1.970093
H      2.376635   -1.855377    1.497175
H      0.177867   -2.670066    0.859678
H     -0.031893    1.131142   -2.743033
H      0.624569   -0.204505   -3.695059
H      5.686358    0.611454    0.673473
H      5.269613   -1.068355    1.004663
H     -2.561314   -1.971020   -0.367785
