32

C      3.369467    1.515905    0.269965
C      2.649634   -0.783015    0.102474
C     -1.632508    2.333503    0.481967
C     -2.837660   -2.059106    0.153577
C     -2.399984    1.022973    0.216104
C     -2.340937   -1.106205   -0.871113
C      1.850211   -1.875162   -0.529454
C      2.339359    0.594959   -0.399638
Cl    -2.754149    3.452891    1.342545
Cl    -4.034317   -1.417600    1.284443
N      1.026742    1.042912    0.029109
N     -1.646525    0.049123   -0.458306
O     -0.063350   -0.814020    1.555535
O      0.563478   -1.537165   -0.855631
P     -0.060698   -0.288223    0.140299
H      4.390751    1.172267   -0.009349
H      3.224409    2.565825    0.013361
H      3.283274    1.298047    1.365204
H      3.734885   -1.000026   -0.136888
H      2.545570   -0.796921    1.190882
H     -0.802702    2.134797    1.166114
H     -1.360411    2.825567   -0.468970
H     -2.022809   -2.493616    0.781888
H     -3.312791   -2.932679   -0.406765
H     -2.844845    0.685234    1.177098
H     -3.266914    1.309253   -0.434462
H     -1.725277   -1.622746   -1.652954
H     -3.247973   -0.758877   -1.466892
H      2.351861   -2.283537   -1.424873
H      1.778871   -2.744463    0.192256
H      2.484524    0.707696   -1.496149
H      0.760815    1.802409   -0.619932
