43

C     -6.438945    0.922982    1.206644
C     -2.644591   -1.205575   -1.152690
C      7.782704    1.250886    0.246694
C     -5.436225    0.343807   -2.031082
C      5.807488   -1.836529    0.395454
C      4.476807   -2.249335    0.270165
C      5.102230    0.363948    0.014573
C     -4.111632    1.035779    2.088834
C     -0.844257   -0.306416    0.997859
C     -4.996799    0.604411    1.119352
C     -3.126386   -0.431256    0.012807
C      6.135820   -0.490703    0.264004
C      3.450139   -1.380646    0.020086
C      3.785972   -0.042617   -0.108589
C     -2.282054    0.012126    0.991793
C     -4.490696   -0.127980    0.084956
C      1.604483   -0.274337   -0.358688
N     -2.805841    0.738916    2.008613
N      2.105048   -1.486684   -0.141193
N      2.635606    0.584835   -0.338326
O     -0.168982    1.640842   -0.643027
O      7.466468   -0.123314    0.394479
O     -5.321995   -0.596286   -0.940006
S     -0.108892    0.120019   -0.645531
H     -6.952549    0.026158    1.641997
H     -6.831097    1.125957    0.218312
H     -6.617724    1.774502    1.918409
H     -3.476165   -1.799104   -1.580823
H     -2.305674   -0.529888   -1.972711
H     -1.851665   -1.921358   -0.865471
H      8.837919    1.481213    0.502002
H      7.074845    1.866995    0.825139
H      7.576089    1.499312   -0.836583
H     -4.523298    0.200191   -2.663167
H     -6.343274    0.203367   -2.620958
H     -5.385913    1.390051   -1.658878
H      6.554110   -2.593709    0.597100
H      4.225779   -3.305287    0.371800
H      5.334379    1.425559   -0.097149
H     -4.478779    1.613626    2.907606
H     -0.309740    0.246824    1.806085
H     -0.624924   -1.384804    1.186540
H      2.522211    1.613525   -0.474969
