18

C      2.664080   -0.796149    0.472239
C     -0.161575   -0.318380    0.850966
C     -1.514908   -0.077513    0.223550
C     -1.398444    1.170912   -0.587695
N     -1.789863   -1.163434   -0.684798
O     -1.533596    1.169678   -1.839480
O     -1.132731    2.377405    0.049044
O      1.256080    0.947029   -0.960365
S      1.112290   -0.516961   -0.448769
H      2.610153   -0.410272    1.484871
H      3.539847   -0.427913   -0.082657
H      2.782447   -1.912182    0.549255
H      0.069229    0.548650    1.493681
H     -0.187619   -1.270804    1.412415
H     -2.250125    0.021497    1.024618
H     -2.493689   -0.925280   -1.415714
H     -0.931884   -1.556782   -1.120747
H     -0.639692    3.140498   -0.415376
