29

C      4.701348    0.988406    0.060754
C      2.874250   -0.335213    1.055210
C      2.824641   -0.028179   -1.282361
C     -3.267458    0.591009   -0.909581
C     -3.058942    0.279812    1.420458
C      1.710342   -1.076295    0.984927
C      1.661142   -0.769715   -1.347704
C     -2.300031   -0.366647   -1.116830
C     -2.077965   -0.690490    1.192825
C      3.448987    0.199720   -0.075133
C     -3.655954    0.923097    0.363076
C      1.085069   -1.301656   -0.243907
C     -1.687672   -1.024414   -0.078859
N     -4.672357    1.928692    0.593064
O     -0.526009   -2.686455   -1.748246
S     -0.429488   -2.273857   -0.259408
H      5.370393    0.757821   -0.800418
H      4.498947    2.063407    0.073094
H      5.229841    0.656228    0.975865
H      3.356225   -0.163325    2.015103
H      3.280681    0.394320   -2.165720
H     -3.707651    1.068549   -1.762257
H     -3.374141    0.550638    2.421379
H      1.252514   -1.500582    1.872734
H      1.157402   -0.955437   -2.308908
H     -1.972179   -0.649953   -2.121475
H     -1.641755   -1.164108    2.047168
H     -4.396776    2.911994    0.808535
H     -5.683406    1.672633    0.543931
