21

C      2.922028    0.387725   -0.454369
C     -0.469101   -1.321445   -0.323698
C     -0.232945   -0.002106   -1.025807
C     -1.567317   -1.249331    0.690971
C      0.147450    1.044182    0.003124
C     -3.367982    0.252657    0.293281
N     -2.805775   -0.863517    0.023310
O      2.092060    1.833571    1.600373
S     -3.667780    1.843170    0.291396
S      1.673489    0.526015    0.869997
H      2.653896    0.945640   -1.340323
H      3.935563    0.596348   -0.063461
H      2.931698   -0.704816   -0.735104
H      0.498040   -1.558929    0.204783
H     -0.691844   -2.130436   -1.023619
H      0.531500   -0.144458   -1.789463
H     -1.196119    0.271644   -1.502408
H     -1.386204   -0.578688    1.531490
H     -1.690702   -2.288794    1.105813
H      0.308074    1.990780   -0.538116
H     -0.618031    1.150787    0.777889
