32

C      3.579274   -0.641344   -1.175174
C      2.643803    0.959531    0.392990
C     -3.031723   -1.033220   -1.785702
C     -2.566065    1.682738    1.071982
C     -1.811639   -0.261627   -1.312355
C     -2.481209    0.206126    0.978518
C      1.778700    1.197260    1.606764
C      2.546411   -0.470141   -0.066305
Cl    -2.860311   -2.777794   -1.450391
Cl    -3.038492    2.523746   -0.387231
N      1.226670   -0.821153   -0.534104
N     -1.585952   -0.380496    0.069543
O      0.158203   -1.255000    1.822834
O      0.470347    1.213859    1.192983
P      0.033987   -0.325516    0.610421
H      4.578736   -0.425949   -0.730384
H      3.540897   -1.636611   -1.618306
H      3.368804    0.139946   -1.941696
H      3.683919    1.149784    0.693871
H      2.337314    1.677773   -0.405142
H     -3.965637   -0.711761   -1.308244
H     -3.134501   -0.899338   -2.887335
H     -1.650444    2.177140    1.451824
H     -3.337090    1.900818    1.860727
H     -1.854878    0.752346   -1.734174
H     -0.947334   -0.756695   -1.837398
H     -2.195141   -0.154428    2.010965
H     -3.509685   -0.192123    0.838079
H      1.903646    0.379201    2.325635
H      2.018814    2.201179    2.040907
H      2.891323   -1.105755    0.766592
H      1.209254   -1.890057   -0.560691
