22

C      4.016474    1.136960   -0.589064
C      3.239559    0.134862   -0.933221
C      2.163317   -0.284476   -0.032592
C     -0.653030   -0.692500    0.400918
C     -2.072592   -0.617480   -0.162030
C     -2.433752    0.747392   -0.556097
N     -2.985261   -1.088968    0.849942
O     -1.774001    1.365855   -1.429665
O     -3.511014    1.410412    0.013667
O      0.616670   -1.316903   -1.857339
S      0.532544   -0.131931   -0.864146
H      3.869960    1.648459    0.341888
H      4.811786    1.455243   -1.242639
H      3.404157   -0.381079   -1.895866
H      2.084245    0.396836    0.836069
H      2.259935   -1.350403    0.281901
H     -0.489207   -1.742081    0.677533
H     -0.627905   -0.081589    1.295866
H     -2.167625   -1.322554   -1.033502
H     -3.956973   -1.141701    0.537562
H     -2.820286   -0.559134    1.720029
H     -3.507002    2.414780    0.163140
