52

C      5.216480   -3.378134   -1.519751
C     -3.939291    1.732684    4.123263
C     -3.779004    1.493991    2.756665
C     -4.604709    0.792462    4.876313
C     -4.926102   -1.294103    0.938662
C     -5.335206   -1.566756    2.242185
C     -3.670294    0.568151   -0.224378
C     -1.346449    0.423375    0.627334
C     -2.275114    0.157422   -0.504076
C     -4.269551    0.349538    2.162427
C      4.579870    0.086741   -1.112680
C      1.341718   -1.572477   -1.868306
C     -1.967995   -0.363796   -1.672616
C      5.232004    1.320490   -0.679125
C      3.122627   -0.002429   -1.239064
C      0.477734   -0.797960   -2.817469
C      0.201494   -1.442797   -0.937890
C     -2.877170   -0.599806   -2.783180
C      5.076392    3.469748    0.027495
N      4.734501    4.638832    0.409292
N     -5.065225   -0.297309    4.280981
N      2.612910   -1.068179   -1.623567
N      4.633659    2.403174   -0.335661
N      5.315306   -0.956688   -1.406391
N      6.621801    1.387264   -0.624663
N     -4.273443   -0.117385    0.898489
N     -4.914754   -0.535132    2.961108
N     -0.604247   -0.755387   -1.946543
O      2.363722    1.104852   -0.932053
O      0.773642   -0.390534   -3.985859
O     -2.428778   -1.109385   -3.886059
O     -4.222080   -0.334400   -2.804625
O      4.656309   -2.101524   -1.811807
S      0.297527   -0.258794    0.424284
S      6.925001    3.053465   -0.066644
H      4.538758   -3.853999   -0.777472
H      5.387022   -3.982802   -2.428659
H      6.175696   -3.206212   -0.965961
H     -3.545193    2.644337    4.582554
H     -3.255002    2.238608    2.177283
H     -4.709563    1.009500    5.932143
H     -5.088457   -1.910032    0.061448
H     -5.875670   -2.433979    2.563562
H     -4.325267    0.491655   -1.069301
H     -3.684155    1.673427    0.072291
H     -1.329176    1.518583    0.868995
H     -1.796715   -0.133442    1.508123
H      1.359474   -2.661586   -2.262883
H     -0.236663   -2.417441   -0.578036
H      3.747789    4.921359    0.484097
H      7.345726    0.638567   -0.853473
H      1.608112    1.424244   -1.579742
