43

C     -3.133728   -2.903822   -0.723354
C     -3.688118    1.798633    0.970930
C      6.086598    0.091789   -2.938273
C     -4.520900    0.083183   -1.966314
C      4.098353   -0.768950   -1.218695
C      3.107343   -1.199661   -0.362226
C      3.886328    1.400899   -0.251955
C     -1.568082   -1.809212    0.904689
C     -1.376894    1.550807    2.544988
C     -2.696615   -1.739322    0.114326
C     -2.954674    0.484974    0.918814
C      4.497337    0.548065   -1.167398
C      2.488584   -0.353169    0.558880
C      2.899434    0.960504    0.596982
C     -1.820347    0.399158    1.706291
C     -3.402481   -0.554608    0.129022
C      1.312112    0.666295    2.105846
N     -1.162334   -0.773680    1.662060
N      1.528876   -0.485695    1.486865
N      2.166903    1.552036    1.545227
O     -0.210767   -0.356800    3.954889
O      5.491965    0.989972   -2.023668
O     -4.549161   -0.403835   -0.638463
S      0.143074    1.054644    3.426645
H     -4.241910   -3.047509   -0.653639
H     -2.675871   -3.832788   -0.344144
H     -2.836536   -2.781909   -1.774023
H     -3.111796    2.546847    0.384960
H     -3.814941    2.110941    2.029092
H     -4.664794    1.672867    0.469417
H      6.910292    0.568527   -3.495159
H      5.314309   -0.295554   -3.662151
H      6.515994   -0.796737   -2.395186
H     -3.758992    0.916871   -1.964473
H     -4.168478   -0.652893   -2.697697
H     -5.476073    0.577453   -2.242775
H      4.578444   -1.432504   -1.935710
H      2.795926   -2.231584   -0.403633
H      4.227288    2.429975   -0.241515
H     -1.014311   -2.757883    0.884573
H     -1.219460    2.461681    1.948522
H     -2.195445    1.757285    3.252790
H      2.213551    2.554706    1.845200
