85

C      3.126484    1.596649   -2.250782
C      3.577317   -1.637407    1.454181
C     -5.771928    3.087621   -0.174790
C      4.518157    1.700898    0.879299
C     -4.609468    0.838204    0.906715
C     -4.012621   -0.293267    1.431468
C     -3.191394    0.583823   -1.006697
C      1.463255   -0.234087   -1.935070
C      1.246792   -2.959687    0.632761
C      2.627908    0.422631   -1.520842
C      2.829556   -1.134085    0.248231
C     -4.187454    1.272352   -0.324699
C     -3.024453   -0.982119    0.762393
C     -2.602143   -0.543023   -0.475927
C      1.683056   -1.785259   -0.154801
C      3.323633   -0.026576   -0.418325
C     -1.450991   -2.348418    0.046857
N      1.048981   -1.309377   -1.227171
N     -2.299316   -2.081461    1.042510
N     -1.644242   -1.405917   -0.871202
O      0.017910   -3.798184   -1.562347
O     -4.765598    2.398804   -0.872584
O      4.463106    0.628486   -0.025856
S     -0.283345   -3.677873   -0.057826
C     -6.261510   -1.583708    0.620394
C     -2.477146    0.937634   -1.275898
C      7.879258   -0.234170    0.897282
C     -5.461442    1.916464   -0.112374
C      5.214894    2.234493    0.249780
C      3.875860    2.231714   -0.143447
C      5.246880   -0.115296    0.155787
C     -3.931327   -2.388731    0.800456
C     -0.731624   -0.776625   -0.020395
C     -4.822469   -1.440690    0.366790
C     -3.023932   -0.186248   -0.466495
C      5.913706    1.059082    0.403785
C      3.221252    1.053990   -0.388428
C      3.932818   -0.123691   -0.233191
C     -2.122492   -1.157489   -0.017552
C     -4.383478   -0.316939   -0.280922
C      1.930966   -0.689803   -0.807177
N     -2.579531   -2.258288    0.610118
N      1.975381    0.683687   -0.749103
N      3.102218   -1.133838   -0.500891
O      0.593834   -2.968991   -0.721140
O      7.271692    1.036241    0.808879
O     -5.172339    0.731091   -0.780186
S      0.386559   -1.529579   -1.235680
Mg     0.000000    0.000000    0.000000
H      3.778002    1.331025   -3.117453
H      2.261922    2.162271   -2.703973
H      3.624227    2.347132   -1.577490
H      2.897668   -1.711899    2.328495
H      4.362757   -0.910330    1.735394
H      4.086571   -2.591276    1.213602
H     -6.077302    4.025038   -0.675324
H     -6.669324    2.426664   -0.159646
H     -5.419718    3.302540    0.872209
H      5.039975    2.587030    0.466676
H      3.506823    1.956090    1.253020
H      5.130521    1.363187    1.752447
H     -5.388572    1.353102    1.470948
H     -4.334244   -0.647359    2.399991
H     -2.875211    0.945970   -1.977224
H      0.923598    0.124985   -2.801075
H      1.998009   -3.749721    0.572144
H      1.071099   -2.627176    1.675804
H     -6.887406   -0.843422    0.122759
H     -6.545809   -2.621944    0.384057
H     -6.397690   -1.464354    1.763784
H     -2.053040    0.454054   -2.213131
H     -3.271188    1.612563   -1.622438
H     -1.709167    1.473114   -0.729727
H      7.722381   -0.734212   -0.077833
H      8.974448   -0.102518    1.103181
H      7.367047   -0.867839    1.633700
H     -4.893270    1.992143    0.870450
H     -5.106682    2.817002   -0.724419
H     -6.489648    2.100399    0.081874
H      5.714730    3.160535    0.425486
H      3.370412    3.138147   -0.261617
H      5.735248   -1.031931    0.250309
H     -4.273918   -3.259772    1.343007
H     -0.283936   -1.106834    1.030672
H     -0.550538    0.304558    0.064235
