29

C      3.109178   -0.624399   -0.196309
C     -2.181590   -1.834980    0.710809
C     -1.689726    2.402030   -0.055096
C      2.765408    0.711936   -0.744680
C     -1.743071   -1.290388   -0.622028
C     -2.213345    1.013491   -0.118573
C      2.284959   -1.069797    0.980682
Cl    -2.770971   -3.499075    0.484448
Cl    -3.084257    3.459588    0.381002
N      1.384027    1.025544   -0.867344
N     -1.259517    0.042490   -0.453237
O      0.292453    0.826360    1.524177
O      1.006140   -1.381853    0.450814
P      0.324483    0.171831    0.168071
H      3.084258   -1.425029   -0.942884
H      4.170954   -0.551438    0.189185
H     -1.382978   -1.762781    1.476618
H     -3.034656   -1.228700    1.063890
H     -0.915620    2.567486    0.702405
H     -1.327737    2.668819   -1.076187
H      3.204601    0.749840   -1.784916
H      3.317927    1.535007   -0.207014
H     -2.637647   -1.257305   -1.286863
H     -0.994259   -1.922897   -1.135294
H     -2.673441    0.731528    0.877001
H     -3.046571    0.969372   -0.858731
H      2.206945   -0.239076    1.735908
H      2.749650   -1.931729    1.453916
H      1.054403    1.144125   -1.849772
