29

C      2.997148    0.535101    0.486448
C     -2.572896   -2.101331   -1.106765
C     -2.163478    1.770515    0.799030
C      2.846720   -0.399844   -0.665923
C     -1.291761   -1.617479   -0.515896
C     -2.145835    0.282994    0.642427
C      2.197747    1.813469    0.366154
Cl    -2.489753   -3.890946   -1.216424
Cl    -2.646350    2.570117   -0.731068
N      1.485422   -0.428228   -1.212622
N     -1.220975   -0.174096   -0.369342
O      0.695795   -0.835270    1.306615
O      0.839085    1.646840    0.478894
P      0.452362    0.073465    0.134982
H      2.849773    0.051353    1.476322
H      4.078306    0.853404    0.494117
H     -2.807119   -1.727367   -2.097976
H     -3.380485   -1.917301   -0.341946
H     -3.014960    2.002623    1.508573
H     -1.273217    2.219300    1.250700
H      3.003694   -1.440569   -0.270831
H      3.607198   -0.268591   -1.453079
H     -1.082045   -2.047842    0.482105
H     -0.419791   -1.889706   -1.157479
H     -3.159199   -0.047190    0.387369
H     -1.898841   -0.152364    1.636861
H      2.533532    2.323351   -0.537042
H      2.533672    2.454821    1.230862
H      1.446250    0.340768   -1.909454
