36

C     -2.815186    2.475420    0.793973
C     -2.404597    0.675796   -0.795930
C      3.003935   -0.093194    0.483601
C     -0.891790    0.517192   -0.887547
C      3.232345    1.365327    0.809627
C      1.493273   -1.816796   -0.349701
C     -2.570788    0.989875    0.663843
C      1.613026   -0.345528   -0.060778
C      0.084165   -2.315017   -0.392729
C     -0.880174   -1.539918    0.427350
C     -0.602559   -0.061725    0.483426
O      3.087095    2.172709   -0.303709
O     -0.342540   -2.439544   -1.716573
O     -0.996100   -2.084293    1.722331
O     -1.475516    0.541664    1.342860
O      0.706735    0.107333    0.874988
H     -3.903078    2.646797    1.002430
H     -2.174581    2.939740    1.572655
H     -2.611988    3.023860   -0.155497
H     -2.769353    1.498475   -1.434572
H     -2.933004   -0.241244   -1.099550
H      3.734373   -0.335738   -0.343472
H      3.273959   -0.745562    1.317935
H     -0.461424    1.541171   -0.903229
H     -0.572037   -0.113485   -1.711018
H      4.276705    1.447102    1.174680
H      2.524234    1.655328    1.611023
H      1.975802   -1.994472   -1.338568
H      2.100817   -2.392447    0.383435
H     -3.465099    0.436248    1.071491
H      1.521109    0.276818   -0.984971
H      0.093833   -3.370536    0.011421
H     -1.899911   -1.664824   -0.032316
H      3.748571    2.897038   -0.249494
H     -1.303237   -2.659899   -1.702641
H     -1.397016   -2.993668    1.603301
