36

C      3.864092   -1.186896   -0.618905
C      2.267098   -1.097048    1.319263
C     -2.954603   -0.546438   -0.194234
C      0.876570   -0.471317    1.435251
C     -2.893436   -1.934946    0.399275
C     -1.840704    1.593181   -0.506918
C      2.791966   -0.395136    0.084543
C     -1.684753    0.206274    0.133160
C     -0.472396    1.918868   -1.084917
C      0.510962    1.580324    0.042817
C      0.603383    0.073116    0.072540
O     -4.079003   -2.612582    0.083324
O     -0.355192    3.206934   -1.519296
O      1.705854    2.187556   -0.294650
O      1.674760   -0.312394   -0.707213
O     -0.599678   -0.474686   -0.374313
H      4.835852   -0.931900   -0.130937
H      3.657129   -2.259351   -0.650498
H      3.949755   -0.749865   -1.655291
H      2.879510   -0.844668    2.211973
H      2.220074   -2.172014    1.128534
H     -3.843348   -0.001439    0.182913
H     -3.045577   -0.576519   -1.298567
H      0.824522    0.260451    2.243167
H      0.191807   -1.320092    1.717856
H     -2.026116   -2.472737   -0.005670
H     -2.768460   -1.832493    1.495249
H     -2.018620    2.328704    0.323340
H     -2.633910    1.620195   -1.249524
H      3.223350    0.551664    0.401358
H     -1.601803    0.303000    1.235875
H     -0.299159    1.157661   -1.893198
H      0.087337    1.920911    0.990944
H     -3.871467   -3.144645   -0.743783
H     -0.761416    3.267971   -2.422074
H      1.585621    3.160356   -0.151393
