85

C     -6.060021   -0.965920    1.391773
C     -3.253020    1.650223   -1.818298
C      8.532188   -0.054404    0.636325
C     -5.619094   -0.824566   -1.994374
C      6.053878   -0.828369   -0.446707
C      4.851222   -1.218502   -0.913231
C      4.961772    0.721944    1.032211
C     -3.745789   -0.336154    1.923989
C     -1.041413    1.378929    0.129982
C     -4.820336   -0.278873    0.992449
C     -3.403944    0.969170   -0.550943
C      6.109002    0.149631    0.535831
C      3.650936   -0.645151   -0.422060
C      3.731806    0.326894    0.557592
C     -2.432319    0.863788    0.366875
C     -4.640157    0.358934   -0.217337
C      1.550442   -0.075166    0.165006
N     -2.628623    0.240555    1.529501
N      2.343178   -0.860999   -0.642921
N      2.439668    0.638009    0.884502
O     -0.562971   -0.844943   -1.093478
O      7.338106    0.561532    1.066522
O     -5.718158    0.375360   -1.129025
S     -0.159895   -0.255978    0.347450
C     -6.382247   -0.507201    1.353061
C     -2.794492    0.722339   -1.876273
C      8.461374    0.332781   -0.726403
C     -6.014613   -0.616003   -2.150561
C      6.021615    1.271721    0.352233
C      4.849790    1.759198    0.882588
C      5.023095   -0.816900   -0.038679
C     -3.993928   -0.556494    1.941728
C     -0.844447    0.182710    0.180550
C     -4.959571   -0.309130    0.986006
C     -3.250989    0.269760   -0.530831
C      6.168625   -0.017257   -0.127580
C      3.745282    0.947756    0.954693
C      3.860430   -0.336441    0.486449
C     -2.301843    0.026274    0.409673
C     -4.597343    0.111679   -0.276190
C      1.814655    0.000168    1.239164
N     -2.703846   -0.382681    1.627253
N      2.495658    1.161017    1.417055
N      2.659361   -0.891103    0.675173
O     -0.009593   -1.781068    1.738093
O      7.331552   -0.509802   -0.656862
O     -5.546496    0.365308   -1.248687
S      0.089110   -0.242028    1.690139
Mg     0.000000    0.000000    0.000000
H     -5.718712   -2.035950    1.596352
H     -6.810988   -0.960680    0.595093
H     -6.488442   -0.584875    2.311402
H     -3.677791    1.052277   -2.649154
H     -2.196152    1.819330   -2.149397
H     -3.816759    2.607588   -1.791765
H      9.312758    0.072500    1.461860
H      8.923829    0.354566   -0.274617
H      8.367404   -1.158764    0.586381
H     -6.299172   -0.799325   -2.818021
H     -5.730469   -1.724469   -1.361831
H     -4.526875   -0.937637   -2.324236
H      6.971667   -1.318344   -0.803958
H      4.733099   -1.981071   -1.660900
H      4.962833    1.493897    1.752656
H     -3.919003   -0.806442    2.860880
H     -0.804378    1.932869   -0.711582
H     -0.759307    1.928585    1.105864
H     -6.491021   -0.472856    2.452493
H     -6.736520   -1.514031    1.013575
H     -7.031959    0.300838    0.945840
H     -3.636428    0.910651   -2.556486
H     -2.204582    1.664971   -1.771862
H     -2.101816   -0.048612   -2.276042
H      8.123609    1.254850   -1.271833
H      8.741983    0.663150    0.306118
H      9.302175   -0.119026   -1.260156
H     -5.552060   -0.452386   -3.134221
H     -7.106063   -0.442620   -2.282759
H     -5.817422   -1.644816   -1.825537
H      6.894105    1.921639    0.298281
H      4.760529    2.770257    1.250805
H      5.126122   -1.842681   -0.416150
H     -4.264681   -0.892625    2.953320
H     -0.569239   -0.446287   -0.663468
H     -0.557868    1.223184   -0.063712
