39

C      3.741165   -0.510989    1.379828
C      2.229612   -0.771983   -1.530743
C      2.184182   -1.559683   -0.245658
C     -2.259574   -1.438440    0.297426
C      1.307009    0.425889   -1.506541
C     -3.646915   -1.276581    0.867012
C     -2.136819    0.926214   -0.221921
C      2.276344   -0.691208    0.964084
C     -1.430685   -0.180397    0.486756
C     -1.199699    1.921781   -0.867231
C      0.040785    1.943385   -0.001668
C      0.681420    0.584127   -0.118487
O     -4.317562   -2.489218    0.637605
O     -1.783117    3.190447   -0.951221
O      0.917595    2.942908   -0.322067
O      1.764046    0.585768    0.778288
O     -0.167017   -0.455755    0.059458
H      4.364561   -0.558555    0.467068
H      3.899139    0.491083    1.828568
H      4.030191   -1.260895    2.142941
H      1.957347   -1.493635   -2.348935
H      3.280065   -0.493724   -1.716920
H      3.098469   -2.217550   -0.251647
H      1.306890   -2.251411   -0.199784
H     -1.787709   -2.331041    0.739699
H     -2.313506   -1.638867   -0.809911
H      0.468346    0.196701   -2.212305
H      1.776273    1.343514   -1.862832
H     -4.174736   -0.437884    0.382493
H     -3.541426   -1.141238    1.962621
H     -2.710631    1.503373    0.555355
H     -2.898786    0.582675   -0.952968
H      1.720471   -1.154725    1.791856
H     -1.389152   -0.008817    1.594971
H     -1.015691    1.586048   -1.890073
H     -0.329379    2.027413    1.058868
H     -3.756747   -3.188279    1.081236
H     -1.227185    3.749624   -1.539701
H      1.042426    3.549924    0.474479
