36

C      2.699213    0.484084    1.119087
C      3.211739    1.388228    0.034385
C     -2.993389   -0.228980    0.352110
C      1.191917    0.546592    1.188644
C     -3.649954    0.921018   -0.365152
C      2.032802    2.087129   -0.587180
C     -1.110668   -1.698195    0.688245
C     -1.602151   -0.514091   -0.152840
C      0.234297   -2.099129    0.191596
C      0.770336   -1.034629   -0.708002
C      0.540133    0.369518   -0.161561
O     -2.945219    2.104630   -0.232410
O      0.057203   -3.256225   -0.601902
O      2.126822   -1.224570   -0.994985
O      1.066578    1.249873   -1.067962
O     -0.808518    0.593797   -0.014917
H      3.064188    0.836769    2.127646
H      3.071824   -0.559598    1.036862
H      3.862632    0.886341   -0.691478
H      3.843006    2.194026    0.504121
H     -3.056802   -0.068207    1.427913
H     -3.606715   -1.139603    0.122343
H      0.866903   -0.179299    1.932585
H      0.896733    1.551702    1.555197
H     -4.643203    1.071161    0.106856
H     -3.834633    0.681966   -1.422058
H      1.667454    2.828990    0.154900
H      2.424931    2.683994   -1.440332
H     -1.164636   -1.442967    1.743541
H     -1.889628   -2.498792    0.519049
H     -1.708153   -0.867691   -1.201458
H      0.953787   -2.315442    0.993719
H      0.258632   -1.038582   -1.715485
H     -3.566397    2.875213   -0.143121
H     -0.573621   -2.994152   -1.335854
H      2.312558   -2.194879   -0.980632
