36

C     -3.210720    0.232029    0.553630
C     -3.052398    1.713361    0.260688
C      2.687722    0.622892    0.591215
C     -1.944629   -0.165830    1.319731
C      3.756876    0.882429   -0.451979
C     -1.608114    1.930487   -0.150428
C      1.595822   -1.067679   -0.825118
C      1.387634    0.191974   -0.046986
C      0.597637   -2.113137   -0.366183
C     -0.799895   -1.549229   -0.332289
C     -0.827967   -0.191133    0.304358
O      3.353455    1.897515   -1.334773
O      0.655229   -3.191379   -1.246294
O     -1.633147   -2.409879    0.367778
O     -1.042549    0.776237   -0.688349
O      0.405661    0.054663    0.930950
H     -4.120895   -0.002359    1.101681
H     -3.178202   -0.285742   -0.421716
H     -3.306236    2.263370    1.200358
H     -3.764288    2.031283   -0.517947
H      3.083700   -0.178895    1.249084
H      2.564543    1.554340    1.181073
H     -2.153986   -1.161601    1.752648
H     -1.743517    0.600461    2.071724
H      3.928744   -0.037634   -1.016265
H      4.720077    1.160878    0.017630
H     -1.586016    2.700135   -0.943766
H     -1.011003    2.222070    0.738816
H      1.504564   -0.954372   -1.915344
H      2.604884   -1.532750   -0.641383
H      1.098917    0.992791   -0.776907
H      0.878516   -2.423536    0.653629
H     -1.198079   -1.512958   -1.370641
H      3.458184    2.770401   -0.874318
H      0.161953   -2.912017   -2.066475
H     -2.262477   -2.907188   -0.200290
