39

C     -3.313389    0.937998    1.557993
C     -2.020635    0.745379   -1.730735
C     -3.195777    0.445486   -0.811424
C      2.241855    1.468499    0.914389
C     -1.154769   -0.518518   -1.643000
C      3.094072    1.936523   -0.222857
C      2.301539   -0.955018    0.269094
C     -2.664132    0.014702    0.514345
C      1.456328    0.234241    0.621269
C      1.406774   -1.902517   -0.540354
C      0.022363   -1.793576    0.077061
C     -0.517274   -0.436738   -0.259573
O      3.760724    3.101521    0.221766
O      1.887175   -3.186312   -0.551508
O     -0.761190   -2.783093   -0.560073
O     -1.323834    0.113911    0.680399
O      0.573135    0.450420   -0.432720
H     -3.264126    1.964166    1.095106
H     -2.691480    0.929858    2.454260
H     -4.342811    0.621255    1.725059
H     -2.319615    0.967703   -2.750361
H     -1.457941    1.576851   -1.238388
H     -3.858020    1.317753   -0.776028
H     -3.707620   -0.448256   -1.273716
H      1.527151    2.263731    1.207458
H      2.901360    1.256288    1.780754
H     -0.388940   -0.527871   -2.432510
H     -1.818794   -1.404274   -1.720594
H      3.901115    1.191815   -0.428317
H      2.538440    2.156595   -1.138773
H      3.161648   -0.707554   -0.361754
H      2.589340   -1.472015    1.220392
H     -3.019206   -1.018128    0.800354
H      0.839043    0.006071    1.515976
H      1.339483   -1.476442   -1.583834
H      0.042252   -2.031785    1.140306
H      3.742455    3.812727   -0.469828
H      2.672851   -3.291525    0.024214
H     -0.179551   -3.559867   -0.778097
