39

C     -3.916639   -0.961096   -0.971691
C     -1.969299    2.110112   -0.029285
C     -3.255525    1.331967   -0.185101
C      2.528647    1.268584   -0.031294
C     -0.893095    1.270745    0.649689
C      3.999137    0.870475   -0.070275
C      2.056802   -1.112420    0.099325
C     -2.834985   -0.138006   -0.323298
C      1.773846    0.113714   -0.704569
C      0.843561   -1.980821    0.307880
C     -0.395423   -1.182141    0.603273
C     -0.526416    0.057442   -0.213720
O      4.420106    0.697341   -1.409012
O      0.619121   -2.755044   -0.814554
O     -0.353080   -0.810234    1.949760
O     -1.660096   -0.137136   -1.044882
O      0.502433    0.387890   -1.015003
H     -4.019911   -0.789155   -2.042990
H     -4.871114   -0.741780   -0.454334
H     -3.681189   -2.029283   -0.750102
H     -1.578304    2.490769   -0.979862
H     -2.167090    2.956519    0.652669
H     -3.851269    1.652062   -1.048553
H     -3.894516    1.422255    0.716236
H      2.272244    1.334918    1.050963
H      2.432426    2.204754   -0.577221
H     -0.029147    1.949085    0.786873
H     -1.217840    0.922690    1.639667
H      4.184131   -0.103541    0.426895
H      4.639309    1.610066    0.430396
H      2.846350   -1.763845   -0.331208
H      2.428805   -0.857254    1.135969
H     -2.723501   -0.504231    0.718342
H      2.341340   -0.023575   -1.677914
H      1.007590   -2.666467    1.165570
H     -1.251416   -1.895251    0.482162
H      5.373407    0.449384   -1.370816
H      1.496970   -3.092294   -1.124279
H     -0.676368   -1.557198    2.517488
