39

C     -3.792848   -1.238035    0.939515
C     -2.176638    1.877024   -0.381663
C     -3.195625    0.808721   -0.220004
C      2.853358    0.355802    1.377848
C     -0.802507    1.280215   -0.451975
C      4.159844    0.703493    0.671854
C      2.030258   -0.615723   -0.690500
C     -2.855681   -0.018491    0.971443
C      1.701811    0.395396    0.360046
C      0.822983   -0.954585   -1.524668
C     -0.317116   -1.186043   -0.584289
C     -0.603961    0.026392    0.298431
O      5.190878    0.667119    1.592042
O      1.086677   -2.202274   -2.136883
O     -1.425161   -1.686927   -1.202711
O     -1.575803   -0.335671    1.175021
O      0.570471    0.172722    1.072590
H     -4.817658   -0.898774    1.273081
H     -3.482181   -1.999097    1.658752
H     -3.938362   -1.605271   -0.091923
H     -2.252555    2.552007    0.517821
H     -2.346408    2.537870   -1.253776
H     -4.180407    1.324152   -0.006476
H     -3.390962    0.228848   -1.145415
H      2.972934   -0.657020    1.801387
H      2.694995    1.087016    2.191001
H     -0.551263    1.206216   -1.551108
H     -0.122200    2.109882   -0.090850
H      4.089517    1.703845    0.204109
H      4.361543   -0.025642   -0.137975
H      2.772634   -0.154980   -1.405678
H      2.466361   -1.551291   -0.297403
H     -3.213446    0.562092    1.877366
H      1.783448    1.398849   -0.108915
H      0.630769   -0.256445   -2.334698
H      0.035104   -1.977964    0.143597
H      6.002536    1.135929    1.258234
H      0.611356   -2.272146   -3.005019
H     -1.796691   -2.497212   -0.762209
