13

C      1.735302    0.273202   -0.115448
C     -0.415398   -0.930074   -0.404087
C     -1.461418   -0.782021    0.371626
C      0.283133    0.353298   -0.520718
C     -1.515719    0.599712    0.810897
O     -2.420494    1.074012    1.582412
O     -0.446012    1.256668    0.252352
H      1.922676   -0.400328    0.727422
H      2.071635    1.308469    0.103680
H      2.321760   -0.040740   -1.021488
H     -0.141157   -1.885990   -0.873757
H     -2.206449   -1.535293    0.674753
H      0.272142    0.709085   -1.587643
