82

C     -5.278024    0.955587    1.630250
C     -5.233423    2.406430   -0.314512
C      5.581057    0.488729   -1.184319
C      5.422241    1.398444    1.065723
C     -3.302075   -1.356306    1.195394
C      3.171866   -1.367829   -1.702331
C     -0.405664    0.141453    1.825184
C      0.480441    0.562504   -1.879641
C     -4.831161   -0.655728   -1.679412
C      4.427003   -1.697699    1.519677
C     -0.856163   -1.995695   -0.114772
C      0.564773   -2.050135   -0.555272
C     -2.657045    1.804980    0.727209
C      2.951978    1.503479   -0.433861
C     -5.673470    0.011212   -0.649952
C      5.537144   -1.012220    0.797328
C     -3.610726   -1.327086   -1.195334
C      3.329079   -2.153929    0.588064
C     -1.216332    1.791207    0.292399
C      1.516838    1.611086   -0.000777
C     -3.437280    0.807465   -0.086567
C      3.486552    0.238752    0.198804
C     -1.466026   -0.635884   -0.305284
C      1.352676   -0.889989   -0.033740
C     -4.885329    0.994457    0.194962
C      4.975899    0.238913    0.156891
C     -2.926871   -0.584708   -0.030805
C      2.826146   -1.003815   -0.298686
C     -0.627966    0.421865    0.358699
C      0.717334    0.413181   -0.400386
H     -4.492307    0.734566    2.345794
H     -6.106110    0.194857    1.747462
H     -5.761937    1.912635    1.990005
H     -6.270632    2.445279   -0.670749
H     -4.559742    2.714798   -1.115450
H     -5.087389    3.118720    0.537139
H      6.274647    1.381930   -1.195851
H      4.870695    0.665132   -1.997194
H      6.275510   -0.373190   -1.413464
H      5.634034    2.306483    0.435297
H      6.324620    1.147506    1.626104
H      4.623530    1.694242    1.762229
H     -2.975517   -2.423175    1.008399
H     -2.867555   -1.017725    2.126475
H     -4.394395   -1.431687    1.328979
H      2.924107   -0.651233   -2.473038
H      2.645257   -2.333088   -1.930034
H      4.259090   -1.637958   -1.716763
H      0.541310    0.545556    2.226614
H     -0.471181   -0.899873    2.118197
H     -1.198934    0.673883    2.434163
H     -0.404798    1.181985   -2.143949
H      1.333086    1.131991   -2.362603
H      0.399811   -0.365447   -2.433651
H     -4.632257    0.107093   -2.487476
H     -5.474120   -1.422028   -2.186578
H      4.861612   -2.651035    1.944235
H      4.047271   -1.149469    2.404603
H     -1.431281   -2.684431   -0.804723
H     -0.947351   -2.428517    0.873133
H      1.014155   -2.977645   -0.086742
H      0.631375   -2.219065   -1.632478
H     -3.056599    2.819820    0.422130
H     -2.810619    1.743514    1.801157
H      3.509866    2.346311    0.043756
H      3.120959    1.581210   -1.501722
H     -6.493797    0.554236   -1.209214
H     -6.250894   -0.715578   -0.005070
H      5.961444   -1.714554    0.064356
H      6.339216   -0.793216    1.530011
H     -2.903371   -1.410291   -2.073946
H     -3.832737   -2.381321   -0.924608
H      3.742528   -2.986615   -0.007694
H      2.535081   -2.577714    1.217679
H     -1.134291    2.326213   -0.641952
H     -0.663690    2.417127    1.055342
H      1.092624    2.494418   -0.562186
H      1.496402    1.887878    1.044900
H     -3.288897    1.141617   -1.161709
H      3.198359    0.330352    1.290497
H     -1.366374   -0.447317   -1.419592
H      1.286713   -0.965902    1.094845
