39

C      3.382233   -0.714147    1.179997
C      3.669777   -0.772371   -1.191978
C     -0.691112    3.841092   -0.286362
C     -2.660902   -2.839933    1.280710
C     -2.664711    0.302269   -0.315542
C     -2.096452    1.712060   -0.351262
C     -2.393766   -0.558653    0.802622
C      0.431588    1.834957    0.160016
C     -0.551576   -2.177515   -0.011774
C      1.078803    0.891954   -0.739590
C      0.576500   -1.506939   -0.748056
C      2.785986   -0.642053    0.001435
C     -0.985723    2.331785   -0.182449
C     -1.662979   -1.899120    0.579348
C      1.339417   -0.444821   -0.064834
H      4.460741   -0.860557    1.306351
H      2.771344   -0.623583    2.069793
H      3.097928   -0.789921   -2.138509
H      4.349305    0.103278   -1.244961
H      4.306585   -1.666690   -1.050085
H      0.088781    3.992346   -1.105357
H     -1.399462    4.585139   -0.397425
H     -0.109981    4.149628    0.657676
H     -2.836949   -2.432414    2.340718
H     -2.552747   -3.857249    1.407866
H     -3.684212   -2.692397    0.786786
H     -2.364963   -0.236057   -1.277001
H     -3.794345    0.334161   -0.464914
H     -3.105160    2.244980   -0.644300
H     -1.842281    0.039742    1.596278
H     -3.372445   -0.741693    1.345771
H      1.141411    2.720298    0.244163
H      0.476391    1.430268    1.202873
H     -0.134497   -3.279095   -0.097899
H      0.382033    0.725065   -1.617513
H      2.001121    1.270518   -1.202636
H      0.264895   -1.119743   -1.763349
H      1.355825   -2.287838   -1.038910
H      0.943600   -0.366749    0.972305
