89

C     -4.059370    3.200493    2.101695
C      3.985103    3.826295   -2.932164
C      4.731428    0.152123   -1.242584
C      3.968196   -0.590452    2.837243
C     -4.318615   -1.797943   -2.037328
C     -7.430608    3.353305    0.066339
C     -4.305662    3.529614    0.682309
C      5.208333    2.966865   -2.896225
C      2.227189   -3.025072    1.918076
C     -1.998039   -3.809163   -1.633828
C      3.452158   -3.724872    1.358968
C     -2.191097   -4.822657   -0.562075
C      3.071409    1.881680    1.174724
C     -3.310419    1.009239   -0.833824
C      0.313859   -2.068559   -0.252861
C      4.369415    1.604411   -0.971383
C      2.904916   -0.553812    1.789199
C     -3.018166   -1.548455   -1.414480
C     -6.460562    2.262531    0.440493
C     -5.065317    2.533988   -0.104433
C      5.505922    2.444507   -1.509506
C      2.134422   -1.627227    1.380888
C     -1.995444   -2.405669   -1.227757
C      2.477237    0.520102    1.029408
C     -2.587210   -0.258573   -0.888148
C      4.447966    1.925104    0.508252
C     -4.502020    1.108581    0.012929
C      1.266663   -1.171362    0.389625
C     -0.905803   -1.680394   -0.590674
C      3.574347   -5.103228    1.868265
C     -1.243791   -4.871223    0.527665
C     -6.736031    0.987970   -0.264427
C      5.598841    3.553512   -0.521063
N      1.494279    0.127217    0.196792
N     -1.364628   -0.368909   -0.420202
N      5.007487    3.238296    0.579499
N     -5.634893    0.364088   -0.491746
O      2.715041   -5.544851    2.658813
O      4.624327   -5.902065    1.479678
O     -1.390100   -4.141529    1.538669
O     -0.145779   -5.713855    0.507044
O     -7.978014    0.524904   -0.629231
O      6.237148    4.752822   -0.767458
H     -4.298432    4.096632    2.734508
H     -4.669521    2.378166    2.519431
H     -2.964369    3.033194    2.257301
H      4.261489    4.868031   -3.208389
H      3.303409    3.460313   -3.739970
H      3.467476    3.814541   -1.953641
H      5.341152   -0.228748   -0.396511
H      3.821159   -0.460701   -1.342986
H      5.401363    0.086743   -2.140184
H      3.973462    0.362435    3.385070
H      4.959078   -0.845608    2.398433
H      3.733960   -1.387513    3.571672
H     -4.175846   -2.631947   -2.793991
H     -5.099987   -2.212283   -1.369886
H     -4.668197   -0.969732   -2.691255
H     -8.420193    2.851164   -0.090902
H     -7.554112    4.002323    0.939696
H     -7.081455    3.872042   -0.836683
H     -4.851509    4.499092    0.593831
H     -3.336206    3.708339    0.144075
H      6.073675    3.534925   -3.285606
H      5.117376    2.071021   -3.558758
H      1.331571   -3.603340    1.683388
H      2.379155   -2.966739    3.015922
H     -2.733984   -3.940110   -2.459529
H     -0.997948   -3.986036   -2.162759
H      4.349408   -3.158681    1.700484
H      3.415370   -3.785293    0.240314
H     -2.247936   -5.828125   -1.092787
H     -3.264919   -4.705223   -0.200986
H      2.396899    2.620543    0.731221
H      3.251093    2.040767    2.256617
H     -3.640090    1.342824   -1.874851
H     -2.608795    1.818804   -0.538414
H      0.601793   -3.077347   -0.484334
H      3.394457    1.861351   -1.384804
H     -6.431387    2.131667    1.528843
H     -5.150676    2.837486   -1.145089
H      6.458782    1.888647   -1.521302
H      5.136060    1.203430    0.958471
H     -4.341411    0.957536    1.095292
H      0.987092    0.715909   -0.485739
H      4.605392   -6.925662    1.549243
H      0.297850   -5.927298    1.390511
H     -8.153252   -0.176482   -1.337133
H      5.957588    5.621168   -0.328574
