127

C    -13.761924    0.387542   -0.551522
C     14.609735    3.881963    0.964520
C    -14.112876    1.511848    0.412866
C     15.178178    3.807876   -0.397604
C    -12.999273    2.542450    0.279285
C     14.670139    4.764838   -1.424186
C    -12.929805    3.077702   -1.112609
C     13.260384    4.619451   -1.787226
C    -11.842367    4.088302   -1.259445
C     12.188772    4.792419   -0.783472
C    -10.467546    3.505980   -0.966373
C     10.825765    4.617489   -1.406332
C    -10.127048    2.395199   -1.893326
C     10.008300    3.685307   -1.035944
C     -8.767537    1.823971   -1.542247
C     10.305446    2.696562    0.018258
C     -8.761825    1.287010   -0.178690
C     10.218936    1.357672   -0.614632
C     -8.548213    0.018205    0.081590
C      9.392908    0.455762   -0.211477
C     -8.286405   -1.042621   -0.907432
C      8.453346    0.607673    0.885463
C     -7.002619   -1.754260   -0.673346
C      8.832907   -0.450685    1.920353
C     -5.803410   -0.811121   -0.722786
C      7.992559   -0.475348    3.119638
C     -4.553776   -1.614429   -0.464745
C      6.531545   -0.770180    2.957581
C     -3.311828   -0.797126   -0.479718
C      6.318934   -2.094720    2.314494
C     -3.291290    0.294006    0.537162
C      4.941092   -2.562754    2.174541
C     -1.931044    0.995078    0.589985
C      3.942644   -1.762006    1.426086
C     -3.822622   -7.623280   -1.002251
C     -2.726054   -6.573474   -1.053931
C     -0.758611   -2.390123    1.864224
C     -0.170327   -3.283077   -0.403162
C      0.315562   -2.938000    0.994271
C     -0.938092   -0.029587    1.058088
C      2.672318   -2.515532    1.440854
N     -5.085753   -7.081931   -0.596141
O      0.305079    0.236625    1.148255
O      2.670505   -3.664390    1.979215
O     -2.276605   -3.039425   -2.811538
O     -0.630656   -5.011441   -2.794178
O     -1.360231   -1.264059    1.399855
O     -3.018687   -5.565596   -1.937092
O     -1.295029   -4.074209   -0.414614
O      1.461349   -2.100983    0.922224
P     -1.786253   -4.423136   -1.999590
H    -14.078789    0.595414   -1.580656
H    -12.644195    0.254743   -0.582865
H    -14.159576   -0.563640   -0.162235
H     15.488749    3.711881    1.687899
H     14.197582    4.871861    1.268662
H     13.904035    3.088284    1.211582
H    -15.048115    1.992285    0.063475
H    -14.235307    1.159018    1.448355
H     15.045578    2.739719   -0.750230
H     16.301625    3.911065   -0.328795
H    -13.212163    3.363798    0.992054
H    -12.024670    2.111476    0.599706
H     15.361107    4.755586   -2.313326
H     14.780520    5.798464   -0.945155
H    -12.897503    2.280924   -1.885666
H    -13.902828    3.610707   -1.304435
H     13.045607    5.360433   -2.625611
H     13.044798    3.618396   -2.300150
H    -11.777849    4.436937   -2.332741
H    -12.058007    4.986773   -0.662620
H     12.178771    5.917869   -0.507863
H     12.280574    4.311818    0.177047
H     -9.682363    4.309879   -1.066350
H    -10.451399    3.209952    0.091509
H     10.512663    5.312580   -2.209185
H    -10.839884    1.547747   -1.855633
H    -10.038715    2.804015   -2.933911
H      9.014673    3.580014   -1.505414
H     -8.017913    2.686901   -1.533069
H     -8.385537    1.154368   -2.320437
H      9.708398    2.841164    0.913298
H     11.374049    2.743272    0.389364
H     -8.942830    1.996991    0.632853
H     10.915228    1.182058   -1.459543
H     -8.561742   -0.301757    1.127304
H      9.380785   -0.524294   -0.733743
H     -8.433772   -0.739536   -1.966035
H     -9.113797   -1.824013   -0.755033
H      8.362596    1.558985    1.381277
H      7.430905    0.382020    0.470680
H     -7.046981   -2.239416    0.329509
H     -6.884890   -2.522056   -1.470288
H      9.871302   -0.138134    2.245181
H      9.005012   -1.434955    1.437687
H     -5.761098   -0.405002   -1.744350
H     -5.935982   -0.038574    0.045824
H      8.457835   -1.193569    3.864370
H      8.110254    0.517476    3.649045
H     -4.720767   -2.130140    0.513843
H     -4.474838   -2.456697   -1.198431
H      6.064639    0.037503    2.394528
H      6.132935   -0.858085    4.004851
H     -3.341624   -0.243835   -1.487953
H     -2.391362   -1.398459   -0.558410
H      6.804170   -2.160733    1.299749
H      6.939978   -2.827657    2.920462
H     -4.050043    1.079318    0.344739
H     -3.451972   -0.137276    1.559830
H      4.532281   -2.769761    3.218192
H      4.897658   -3.607184    1.717340
H     -1.991250    1.860354    1.249235
H     -1.617741    1.303841   -0.440861
H      3.740182   -0.762623    1.868289
H      4.264847   -1.573431    0.380123
H     -3.926674   -8.076996   -1.991810
H     -3.510686   -8.392449   -0.274501
H     -2.509255   -6.168736   -0.033425
H     -1.802357   -7.087582   -1.390881
H     -1.487707   -3.219548    2.099123
H     -0.267427   -2.182793    2.878005
H      0.673361   -3.834714   -0.919910
H     -0.287547   -2.362716   -0.979780
H      0.652503   -3.894390    1.499619
H     -5.894351   -7.472223   -1.132567
H     -5.112833   -6.041577   -0.780035
H     -2.229557   -3.138773   -3.792995
