121

C     14.127020    5.216629    2.106677
C    -14.861738    3.900036   -1.277649
C     12.757463    5.142568    1.417238
C    -14.538451    3.158212   -0.018234
C     11.841935    4.442149    2.312627
C    -13.016985    2.773382   -0.039651
C     11.204508    3.340225    2.040899
C    -12.710154    2.049069    1.201130
C     11.351479    2.640916    0.709663
C    -11.418291    1.447833    1.442832
C      9.983155    2.587776    0.140631
C    -10.124779    2.181976    1.468372
C      9.394950    1.462820   -0.155606
C     -9.739049    2.738798    0.172054
C     10.027779    0.157657    0.042994
C     -8.502841    3.487571   -0.029548
C     10.101165   -0.532113   -1.285022
C      9.518909   -1.676377   -1.504484
C     -7.144186    2.918285    0.101801
C      8.728030   -2.443283   -0.530693
C      7.326072   -2.689363   -1.025017
C     -6.769613    2.384801    1.424495
C      6.512131   -1.469761   -1.278561
C     -5.358981    2.019884    1.686632
C      6.260313   -0.653644   -0.043400
C     -4.722511    1.017869    0.832339
C      5.439505    0.573169   -0.373558
C     -4.425456    1.435340   -0.553871
C      4.143500    0.156788   -0.975938
C     -3.833205    0.242718   -1.320082
C      3.291679   -0.729340   -0.104672
C     -2.556867   -0.184881   -0.687232
C     -1.126441   -7.403914    2.568680
C     -0.424976   -7.583275    1.244890
C      0.952883   -2.513735   -2.574513
C     -0.026645   -4.146377   -0.965296
C     -0.295755   -2.948003   -1.860522
C      2.057294   -1.022667   -0.919512
C     -2.035672   -1.333838   -1.496707
N     -2.282100   -6.509765    2.429073
O      1.092954   -0.245701   -0.792729
O     -2.677761   -1.782209   -2.452779
O      2.505632   -6.568500   -0.488583
O      0.346490   -7.770974   -1.433435
O      1.975507   -2.086282   -1.767584
O      0.038236   -6.373190    0.734809
O      0.487373   -5.212703   -1.683513
O     -0.814377   -1.866804   -1.129824
P      0.818178   -6.543403   -0.730228
H     14.497245    4.169789    2.137663
H     13.937441    5.566525    3.130969
H     14.761372    5.889836    1.516175
H    -15.483452    3.281789   -1.963701
H    -15.406515    4.841099   -1.060425
H    -13.915513    4.140453   -1.821335
H     12.382706    6.201643    1.329447
H     12.941127    4.737644    0.441069
H    -14.635563    3.818197    0.866965
H    -15.132824    2.241116    0.125634
H     11.659703    4.867883    3.320585
H    -12.567833    3.803368   -0.077173
H    -12.825690    2.231613   -0.962725
H     10.537316    2.902948    2.801532
H    -13.514592    1.230589    1.340094
H    -12.922121    2.751114    2.094400
H     11.964070    3.290798    0.064443
H     11.841587    1.691152    0.880962
H    -11.246720    0.632647    0.626432
H    -11.451100    0.810848    2.419268
H      9.455124    3.552913   -0.032628
H    -10.275229    3.039207    2.222862
H     -9.400589    1.473351    1.949624
H      8.387918    1.479434   -0.571986
H    -10.569231    3.436519   -0.154353
H     -9.819565    1.885121   -0.591278
H      9.453039   -0.429717    0.761839
H     11.089744    0.187200    0.383353
H     -8.551491    3.900321   -1.100397
H     -8.482882    4.452043    0.594829
H     10.675080   -0.027426   -2.081247
H      9.663369   -2.073567   -2.544214
H     -6.425191    3.663767   -0.281888
H     -7.085768    2.053353   -0.678955
H      8.724065   -2.099725    0.485003
H      9.211403   -3.476328   -0.498803
H      6.820995   -3.328438   -0.255631
H      7.405199   -3.338802   -1.940527
H     -7.138749    3.021386    2.278324
H     -7.336033    1.369836    1.573734
H      5.553860   -1.812323   -1.745192
H      7.000878   -0.862263   -2.087079
H     -5.210826    1.731911    2.778035
H     -4.782567    3.017990    1.655834
H      5.633001   -1.288170    0.629641
H      7.168790   -0.305018    0.444364
H     -3.748245    0.658943    1.289608
H     -5.355123    0.068556    0.738500
H      5.962091    1.204587   -1.136122
H      5.255373    1.156233    0.555874
H     -5.167126    1.868769   -1.186079
H     -3.526145    2.178076   -0.498167
H      4.233704   -0.335084   -1.966273
H      3.485738    1.059084   -1.193019
H     -4.535988   -0.628838   -1.255885
H     -3.650020    0.507857   -2.370021
H      3.757392   -1.732071    0.068553
H      3.030967   -0.272355    0.866802
H     -1.808817    0.628632   -0.689611
H     -2.636140   -0.557014    0.355988
H     -0.447287   -7.090710    3.377739
H     -1.542463   -8.390405    2.860444
H     -1.067149   -8.140560    0.564821
H      0.477293   -8.208364    1.444046
H      0.651333   -1.660603   -3.242535
H      1.330675   -3.297904   -3.272108
H      0.698583   -3.834815   -0.209724
H     -0.949624   -4.480454   -0.455088
H     -1.029248   -3.253464   -2.670489
H     -2.835074   -6.607058    3.308088
H     -2.818564   -6.830931    1.594081
H      2.771571   -7.520102   -0.517141
