121

C    -15.011861    2.347167   -0.226066
C     14.903654    3.451947    0.457601
C    -13.583448    1.853451   -0.522435
C     14.813265    2.383758   -0.601860
C    -13.389116    0.528627    0.108541
C     13.412782    1.724054   -0.526061
C    -12.469265    0.346349    1.023548
C     13.284231    0.670112   -1.549533
C    -11.541656    1.386085    1.534039
C     12.092351   -0.177887   -1.634243
C    -10.169122    0.919502    1.227987
C     10.743256    0.362129   -1.895430
C     -9.362466    1.606354    0.475621
C     10.203018    1.275608   -0.860481
C     -9.607972    2.861751   -0.170700
C      8.767813    1.679524   -1.258108
C     -9.536841    2.993176   -1.619705
C     -9.306341    2.106257   -2.521455
C      8.289041    2.613433   -0.181190
C     -9.056758    0.692882   -2.326735
C      8.256493    2.079935    1.184265
C     -7.662468    0.269236   -2.764454
C      7.496276    0.888485    1.549292
C     -7.554268   -1.222552   -2.540107
C      6.035477    0.812455    1.387531
C     -6.177850   -1.673891   -2.891685
C      5.578655    0.877964   -0.018431
C     -5.142474   -0.959232   -2.017822
C      4.056024    0.795886   -0.127304
C     -5.427405   -1.296071   -0.594314
C      3.488253   -0.456905    0.453552
C     -4.521555   -0.680729    0.419074
C     -0.361397   -7.104553    2.008686
C     -0.466560   -5.636255    2.282981
C     -0.113461    0.486551    1.199399
C     -0.429998   -1.603843    2.489587
C     -0.847810   -0.835416    1.238730
C      1.994229   -0.354009    0.272747
C     -3.102444   -1.058978    0.271589
N     -0.277096   -7.278733    0.560362
O      1.429971   -0.854801   -0.713764
O     -2.686699   -1.771338   -0.646557
O      0.679345   -3.059588    4.708868
O     -1.833540   -3.525731    4.920513
O      1.268316    0.312860    1.229896
O     -0.552881   -5.351571    3.644128
O     -1.099057   -2.827002    2.562609
O     -2.215442   -0.575598    1.229509
P     -0.676484   -3.694376    3.927736
H    -15.087552    2.634406    0.836683
H    -15.139377    3.268569   -0.850508
H    -15.744868    1.566884   -0.432072
H     14.512082    4.396282    0.012870
H     15.942821    3.632696    0.810765
H     14.313454    3.158132    1.350498
H    -12.832485    2.599223   -0.320784
H    -13.602708    1.677437   -1.640460
H     14.925321    2.798551   -1.616854
H     15.590568    1.618214   -0.451130
H    -14.046963   -0.324737   -0.209460
H     12.759620    2.607932   -0.773057
H     13.222502    1.432993    0.505568
H    -12.393573   -0.683013    1.443748
H     14.190176   -0.001958   -1.429342
H     13.491096    1.173408   -2.556249
H    -11.663527    1.390344    2.693975
H    -11.805730    2.382315    1.255697
H     12.339101   -1.002171   -2.406201
H     12.070469   -0.804878   -0.669062
H     -9.813678   -0.053725    1.658058
H      9.983720   -0.489138   -2.000107
H     10.713384    0.928981   -2.884296
H     -8.323941    1.169579    0.337431
H     10.710795    2.245598   -0.784103
H     10.228380    0.818550    0.138333
H     -8.885590    3.669234    0.266398
H    -10.593429    3.295722    0.173985
H      8.135995    0.824014   -1.466734
H      8.879783    2.270881   -2.190350
H     -9.710916    4.041210   -2.024211
H     -9.287417    2.444617   -3.596678
H      7.470126    3.280484   -0.504908
H      9.167623    3.397708   -0.149249
H     -9.721045    0.170915   -3.131169
H     -9.346336    0.190888   -1.429221
H      9.334393    1.974064    1.540495
H      7.883641    2.946461    1.845145
H     -6.942135    0.789356   -2.106258
H     -7.502904    0.468745   -3.828553
H      7.919107   -0.062860    1.095855
H      7.707498    0.692527    2.664702
H     -8.254711   -1.741670   -3.291927
H     -7.871804   -1.506324   -1.539761
H      5.698857   -0.199241    1.799913
H      5.499494    1.558116    2.040466
H     -6.106360   -2.758799   -2.580919
H     -5.961761   -1.584666   -3.961079
H      5.840231    1.827047   -0.484013
H      6.057176    0.060507   -0.597457
H     -4.161457   -1.399713   -2.364584
H     -5.055730    0.110830   -2.240647
H      3.656907    1.667595    0.426457
H      3.824551    0.833247   -1.196792
H     -5.349694   -2.421853   -0.513363
H     -6.477631   -1.087735   -0.293064
H      3.875284   -1.348410   -0.070376
H      3.721289   -0.571455    1.540053
H     -4.823938   -0.996554    1.457774
H     -4.568151    0.446226    0.373264
H     -1.220308   -7.657708    2.417692
H      0.608811   -7.451349    2.434662
H     -1.436432   -5.282511    1.825712
H      0.340233   -5.052309    1.842055
H     -0.346198    1.050976    0.259535
H     -0.382831    1.131019    2.067092
H     -0.768548   -1.000072    3.352061
H      0.655953   -1.677673    2.522112
H     -0.534598   -1.439102    0.386778
H      0.355777   -6.521586    0.188005
H      0.048397   -8.233681    0.288026
H      1.480994   -3.614073    4.544581
