120

C    -16.795172   -2.958998   -1.150403
C     14.013694   -2.055257   -0.730012
C    -15.763974   -3.099140   -0.035753
C     14.272781   -2.903049   -1.939744
C    -14.662639   -2.101427   -0.341547
C     13.445703   -2.560292   -3.117151
C    -13.576273   -2.140414    0.701433
C     11.982781   -2.705047   -3.056085
C    -12.497328   -1.145174    0.406495
C     11.228955   -1.909942   -2.041779
C    -11.849089   -1.435858   -0.910698
C      9.752702   -2.234935   -2.242775
C    -10.771542   -0.442687   -1.234643
C      8.904560   -1.418242   -1.264572
C     -9.653260   -0.391551   -0.217561
C      9.269585   -1.756122    0.134826
C     -8.684478    0.657902   -0.728163
C      8.546525   -1.054310    1.201207
C     -7.505050    0.862048    0.162441
C      7.105908   -1.191523    1.403915
C     -6.562851    1.917604   -0.367736
C      6.144583   -0.785499    0.348292
C     -6.021922    1.530571   -1.729391
C      6.290493    0.641252   -0.088008
C     -5.087495    2.529298   -2.283458
C      6.059474    1.532261    1.150554
C     -3.820537    2.819256   -1.597903
C      6.219970    2.968282    0.782704
C     -2.764336    1.818495   -1.504530
C      6.078335    4.004530    1.789928
C     -2.887015    0.517671   -0.872230
C      4.902055    4.458438    2.476922
C     -3.210352    0.407664    0.568106
C      3.965378    3.626692    3.228023
C      1.494638   -0.385853    2.268947
C     -0.017365    1.581126    2.262220
C      1.419833    1.083152    2.029264
C     -2.203768    1.135821    1.426543
C      3.115731    2.786168    2.379519
O      1.081832   -0.713276    3.566089
O     -2.596444    2.062098    2.179706
O      3.179911    2.894611    1.134160
O     -0.858141    0.829550    1.419698
O      2.219514    1.858954    2.897011
H    -16.345174   -3.350115   -2.072446
H    -16.965272   -1.876216   -1.298293
H    -17.724157   -3.522153   -0.909518
H     13.503761   -1.127009   -1.032453
H     15.001556   -1.695128   -0.297578
H     13.445888   -2.553619    0.076365
H    -15.330865   -4.121148   -0.033969
H    -16.221257   -2.812666    0.928428
H     15.350007   -2.717611   -2.230789
H     14.245260   -3.994452   -1.693616
H    -15.076982   -1.067009   -0.348940
H    -14.233135   -2.374577   -1.333974
H     13.695202   -1.502436   -3.458650
H     13.791556   -3.192132   -4.000447
H    -13.112876   -3.146450    0.688514
H    -13.985111   -1.926917    1.714310
H     11.650754   -3.772931   -2.948378
H     11.561193   -2.395608   -4.062538
H    -12.898661   -0.091895    0.377453
H    -11.746325   -1.222428    1.228533
H     11.450605   -2.255175   -1.006495
H     11.408092   -0.826991   -2.078360
H    -12.615681   -1.310540   -1.724673
H    -11.445069   -2.460083   -0.965832
H      9.441131   -2.103538   -3.283062
H      9.568834   -3.303970   -1.957430
H    -11.231525    0.559454   -1.332878
H    -10.338906   -0.754850   -2.226680
H      7.871562   -1.621261   -1.554186
H      9.135877   -0.327294   -1.416667
H    -10.068209   -0.158144    0.769999
H     -9.162279   -1.408200   -0.217983
H     10.361712   -1.465458    0.273442
H      9.231602   -2.873321    0.239890
H     -9.246133    1.614623   -0.798070
H     -8.376151    0.294805   -1.746018
H      8.834841    0.048871    1.100664
H      9.052058   -1.332225    2.191020
H     -7.816862    1.100641    1.185872
H     -6.925501   -0.095588    0.224522
H      6.787033   -0.732657    2.407377
H      6.874589   -2.297938    1.599962
H     -5.806133    2.124814    0.393286
H     -7.166169    2.859569   -0.461853
H      5.121166   -0.790130    0.892388
H      6.020547   -1.523845   -0.427166
H     -5.711413    0.477630   -1.776124
H     -6.941403    1.561693   -2.400357
H      7.291585    0.890947   -0.449101
H      5.474125    0.863586   -0.808572
H     -4.949010    2.279418   -3.369231
H     -5.663058    3.508948   -2.335040
H      6.951019    1.287902    1.805054
H      5.142511    1.185424    1.581126
H     -3.362024    3.697815   -2.181863
H     -4.060565    3.326774   -0.620624
H      5.585149    3.212310   -0.129088
H      7.281558    3.045511    0.346172
H     -2.433521    1.611344   -2.591867
H     -1.809697    2.318056   -1.115317
H      6.542732    4.976394    1.313067
H      6.912367    3.830465    2.609213
H     -1.846972    0.022450   -0.971005
H     -3.521397   -0.228219   -1.411705
H      4.280424    5.109054    1.724259
H      5.238619    5.286316    3.209097
H     -2.995733   -0.687257    0.833300
H     -4.224790    0.558634    0.891553
H      4.467055    3.012852    4.025709
H      3.248210    4.285366    3.823620
H      0.818005   -0.877086    1.538170
H      2.548080   -0.710133    2.091294
H     -0.228873    1.489302    3.332162
H     -0.066388    2.669199    2.033524
H      1.674334    1.282911    0.949394
H      1.886759   -0.921524    4.097539
