34

C     -4.105156   -1.997521    0.295824
C     -2.748445   -2.011047    0.525205
C     -3.984355    0.116741   -0.753198
C      2.739771    0.392152   -0.694375
C      2.208754    0.766795    1.958163
C     -0.535519    0.873344   -1.468048
C      5.531557    1.895826    1.091436
C     -4.746367   -0.952476   -0.337627
C     -1.980493   -0.942781    0.111151
C      1.472526    0.171872   -0.208360
C     -2.603240    0.109713   -0.523195
C      1.196461    0.359272    1.131948
C      3.761287    0.808642    0.166750
C      3.508288    1.001690    1.507157
C     -0.522002   -0.870507    0.318027
C      0.189157   -0.269225   -0.861674
O     -6.131533   -1.000578   -0.540445
O      0.453963   -1.242984   -1.830829
O     -1.794968    1.163174   -0.923267
O      5.114786    1.104955   -0.033796
O      4.695381    1.406025    2.091725
O     -0.164241    0.064551    1.348735
H     -4.708682   -2.843139    0.624282
H     -2.236998   -2.822336    1.019224
H     -4.464910    0.947572   -1.251053
H      2.929327    0.238826   -1.743852
H      2.037306    0.926764    3.018950
H      0.118486    1.782344   -1.377183
H     -0.629304    0.721145   -2.583226
H      5.263338    2.966257    0.920747
H      6.602460    1.762518    1.287632
H     -0.091865   -1.851421    0.611033
H     -6.786230   -0.629498    0.152551
H      0.411458   -2.146664   -1.428493
