55

C     -4.636771    2.155761   -1.082671
C     -2.924703    2.329507    0.631120
C     -4.210607   -3.617904    0.425104
C      4.461289   -1.414282    1.910675
C      7.004895    1.874736   -0.985443
C      6.763898    0.619619   -1.513558
C      6.256546    2.300826    0.099741
C      5.789470   -0.169984   -0.948077
C      5.292160    1.497325    0.646027
C     -4.801700   -1.425085   -0.569419
C     -3.931521   -0.647307   -1.543477
C     -2.533719   -1.889846    0.203870
C      2.510206    1.332079    0.230767
C     -3.812419    1.354598   -0.112472
C     -3.980791   -2.099123    0.508642
C      3.996662   -0.605694    0.727976
C      5.031357    0.245877    0.141762
C     -2.994917    0.287519   -0.814294
C      1.708637    0.147564    0.037181
C     -2.104718   -0.449795    0.168231
C      0.274393    0.099075    0.446813
N      2.760392    0.089389    1.008488
O     -0.013853    0.599732    1.570924
O     -0.743863   -0.438644   -0.296898
H     -4.159864    2.092403   -2.085399
H     -4.639371    3.248638   -0.821245
H     -5.704051    1.856712   -1.127919
H     -3.523804    3.264674    0.781250
H     -2.713808    1.910898    1.624662
H     -2.037178    2.598432    0.030731
H     -5.195532   -3.886135    0.802936
H     -3.366162   -4.125047    0.914281
H     -4.112259   -3.861578   -0.671791
H      4.474239   -0.865778    2.856477
H      5.487515   -1.762593    1.702292
H      3.827378   -2.327703    1.987678
H      7.766240    2.496178   -1.428125
H      7.345285    0.285231   -2.355937
H      6.454730    3.281823    0.497137
H      5.621609   -1.145602   -1.377923
H      4.726627    1.860095    1.490156
H     -5.511453   -0.735569   -0.082690
H     -5.333370   -2.185463   -1.163818
H     -4.627924   -0.063109   -2.175787
H     -3.404962   -1.333792   -2.217422
H     -2.326336   -2.311710   -0.807961
H     -1.845461   -2.431391    0.909507
H      3.212651    1.620553   -0.557129
H      2.080568    2.203499    0.788808
H     -4.496166    0.912813    0.638167
H     -4.218262   -1.768277    1.516204
H      3.723471   -1.367467   -0.061579
H     -2.347644    0.781378   -1.549075
H      1.871040   -0.396245   -0.920972
H     -2.188067   -0.021808    1.185658
