69

C      0.472903    5.471523   -1.599549
C     -4.185697    0.580710    3.280666
C     -4.571245   -1.095827   -3.143896
C      4.043849   -1.087011    3.975800
C      4.343224   -0.833429   -2.775788
C      1.326012    4.590919   -2.244118
C     -0.415489    4.975453   -0.701550
C     -4.486571   -0.648798    2.779443
C     -3.107011    1.245852    2.758562
C     -3.949115   -2.290729   -2.817194
C     -4.314844    0.036452   -2.418324
C      3.119447   -0.099295    3.734598
C      4.195078   -2.161974    3.123496
C      4.225070    0.070908   -1.745372
C      3.545660   -1.954628   -2.740472
C      1.285011    3.243815   -1.990130
C     -0.454680    3.600074   -0.444657
C     -3.738123   -1.209575    1.783364
C     -2.343111    0.670935    1.740459
C     -3.060377   -2.384497   -1.763732
C     -3.417719   -0.069998   -1.359245
C      2.327711   -0.232455    2.572258
C      3.411111   -2.268946    1.996716
C      3.338192   -0.144805   -0.718768
C      2.651347   -2.160721   -1.694292
C      0.378026    2.722013   -1.070756
C     -2.625663   -0.566250    1.218334
C     -2.805594   -1.262937   -1.043901
C      2.471784   -1.285037    1.732416
C      2.513579   -1.278757   -0.658004
C     -0.637879   -0.540864   -0.327338
C      0.505590   -0.408301    0.579880
C      0.362415    1.290037   -0.833909
C     -1.860258   -1.229281    0.140628
C      1.607419   -1.401726    0.492348
O     -1.653994   -2.536803    0.589569
O      1.141256   -2.727097    0.585459
O     -0.923469    0.764549   -0.758244
O      0.966031    0.907123    0.361117
H      0.537377    6.528137   -1.827939
H     -4.804191    1.010580    4.082629
H     -5.278183   -1.029955   -3.985226
H      4.668103   -1.014602    4.861081
H      5.053704   -0.665525   -3.603279
H      2.032271    5.017216   -2.963725
H     -1.098857    5.642163   -0.180172
H     -5.353506   -1.158279    3.214838
H     -2.867092    2.219991    3.154785
H     -4.172110   -3.169867   -3.409893
H     -4.797222    0.979170   -2.664866
H      2.989753    0.753764    4.398958
H      4.933080   -2.914520    3.350793
H      4.836884    0.959474   -1.744441
H      3.641144   -2.662465   -3.552122
H      1.985356    2.604337   -2.532798
H     -1.189550    3.288409    0.279624
H     -3.998912   -2.176496    1.410087
H     -1.530892    1.251097    1.395681
H     -2.565765   -3.307000   -1.493999
H     -3.242912    0.848677   -0.807710
H      1.618511    0.568400    2.433926
H      3.485399   -3.084220    1.297541
H      3.274861    0.581782    0.064606
H      2.065224   -3.044108   -1.721973
H     -0.235079   -1.032964   -1.277141
H      0.104934   -0.408549    1.624137
H      0.827881    0.760398   -1.719452
H     -1.425259   -2.522196    1.554706
H      0.825173   -3.113473   -0.234530
