69

C      1.835124    5.731269   -0.893789
C     -4.446245    2.158756    2.878371
C     -3.628218   -3.431340   -1.271314
C      4.036911   -2.481959   -3.294046
C      2.869854   -1.895808    3.316060
C      2.651990    5.152029    0.051530
C      0.780196    5.026944   -1.387718
C     -4.888349    1.991341    1.585265
C     -3.195963    1.706035    3.230746
C     -3.258244   -2.514287   -2.227177
C     -3.487873   -3.193832    0.079583
C      3.663947   -3.349822   -2.290609
C      3.417526   -1.267521   -3.382736
C      3.426461   -1.102117    2.358004
C      1.701264   -2.564002    3.049449
C      2.412910    3.858182    0.507236
C      0.556827    3.751154   -0.928432
C     -4.070408    1.364577    0.636117
C     -2.409076    1.091569    2.276793
C     -2.724664   -1.304874   -1.849579
C     -2.948494   -1.967992    0.411223
C      2.685739   -2.999313   -1.394616
C      2.425686   -0.877821   -2.496980
C      2.810634   -0.979536    1.134015
C      1.095999   -2.432256    1.820964
C      1.345822    3.135189    0.012864
C     -2.820426    0.909087    0.978073
C     -2.567312   -1.026813   -0.516615
C      2.069275   -1.756077   -1.505493
C      1.640986   -1.633079    0.832825
C     -0.590694    0.248438    0.384559
C      0.430886   -0.085869   -0.635842
C      1.066945    1.732825    0.490070
C     -2.008968    0.253358   -0.077048
C      1.020538   -1.458313   -0.501530
O     -2.088506    1.133094   -1.186093
O      0.062770   -2.463688   -0.652164
O     -0.264069    1.552300    0.755826
O      1.465483    0.830558   -0.459584
H      2.035674    6.744453   -1.240011
H     -5.104257    2.649862    3.595115
H     -4.053547   -4.396189   -1.556101
H      4.824435   -2.781319   -4.003675
H      3.368795   -1.989869    4.295597
H      3.477298    5.749267    0.414884
H      0.120558    5.467176   -2.137340
H     -5.869011    2.352229    1.329696
H     -2.880809    1.853468    4.252887
H     -3.391844   -2.753989   -3.301962
H     -3.781546   -3.921764    0.839748
H      4.135571   -4.317996   -2.194405
H      3.676197   -0.541868   -4.160455
H      4.343521   -0.556087    2.518217
H      1.237243   -3.201978    3.793863
H      3.066272    3.432414    1.244677
H     -0.281232    3.211191   -1.330681
H     -4.516652    1.285542   -0.346067
H     -1.441081    0.752355    2.595553
H     -2.441475   -0.601018   -2.638246
H     -2.845280   -1.799079    1.496957
H      2.391389   -3.694095   -0.596170
H      1.944799    0.094106   -2.590683
H      3.274359   -0.338713    0.369543
H      0.174224   -2.951205    1.592228
H     -0.420901   -0.393068    1.270792
H      0.096187    0.024386   -1.683104
H      1.612593    1.634398    1.466602
H     -2.960837    1.091828   -1.637538
H      0.133091   -2.944827   -1.498129
