21

C      2.925695    0.111931    0.139251
C      0.783494    0.860559   -1.004953
C     -0.513063    0.884240   -1.150335
C      0.684976   -0.603005    0.849031
C      1.440442    0.092476    0.031070
C     -0.770528   -0.666157    0.799074
C     -2.328570    1.143590    0.353491
C     -1.426055    0.128973   -0.270079
O     -1.176794   -2.018157    0.693002
O     -1.820197    1.995393    1.105215
O     -3.674162    1.107376    0.082878
O     -2.277448   -0.694616   -1.061478
H      3.358030    0.988073   -0.364552
H      3.284958   -0.789379   -0.405787
H      3.272470    0.141371    1.191767
H      1.387637    1.458464   -1.712313
H     -0.958450    1.493480   -1.965456
H      1.196527   -1.169740    1.616575
H     -1.162660   -0.340506    1.809865
H     -0.395613   -2.574024    0.539579
H     -1.830691   -1.550343   -1.275844
