42

C      4.109444    2.052779   -1.256362
C     -6.201726    0.794409    1.906780
C      2.357277    0.146504   -0.195498
C      1.393348   -0.664092    0.155827
C     -2.357740   -2.346503   -1.897438
C     -3.036850   -0.269116   -0.696989
C     -3.868607    2.140584    0.609401
C      4.570771    1.155361   -0.169984
C     -2.189228   -1.533953   -0.629460
C      3.693550    0.199767    0.363611
C      0.070510   -0.599903   -0.512250
C      4.193881   -0.575141    1.347928
C      6.292634    0.492066    1.260980
N      5.836763    1.282841    0.281689
N     -0.871435   -1.364555   -0.193436
N      5.481561   -0.426962    1.789159
O     -1.823009   -3.614363   -1.637079
O     -0.120010    0.333111   -1.514958
O      3.441651   -1.541243    1.949162
O      7.609010    0.638932    1.716228
O     -3.626361   -0.153502    1.857010
S     -5.580879    1.562263    0.384978
S     -2.787015    0.662924    0.851626
H      3.824490    1.486570   -2.166312
H      4.914291    2.779301   -1.466726
H      3.244822    2.669621   -0.888777
H     -7.281478    1.020650    2.020844
H     -6.113190   -0.307086    1.870919
H     -5.643156    1.155802    2.786909
H      2.085116    0.854685   -1.011908
H      1.546352   -1.388616    0.933669
H     -1.776403   -1.903191   -2.705152
H     -3.427786   -2.388127   -2.162868
H     -4.089857   -0.628179   -0.757443
H     -2.807945    0.351051   -1.558389
H     -3.584753    2.667538   -0.308472
H     -3.838081    2.772875    1.516978
H     -2.727968   -2.157885    0.169176
H     -2.202725   -3.910993   -0.778201
H     -0.604621    0.128799   -2.381416
H      3.523245   -1.807564    2.929649
H      8.372106    0.232538    1.175641
