37

C     -1.167395   -1.359581    1.074045
C      5.700576    1.051942    0.547499
C     -5.615827    0.191916   -0.288948
C      5.076959   -0.004494    1.162585
C      5.018883    1.961474   -0.253249
C     -4.988185   -0.936635   -0.822294
C     -4.877520    1.165914    0.345061
C      3.723105   -0.161705    0.974136
C      3.640553    1.806778   -0.449340
C     -3.618803   -1.005087   -0.673517
C     -3.490195    1.069812    0.481889
C      1.566818    0.490127    0.034525
C     -1.378193   -0.228891    0.057957
C      3.060490    0.744567    0.179931
C     -2.878316   -0.043236   -0.045059
C      0.439664   -1.107020   -1.383942
N      1.435748   -0.591205   -0.845309
N     -0.882321   -0.675321   -1.207966
O      0.690487   -2.231527   -2.250485
H     -1.025391   -0.965274    2.095837
H     -2.045919   -2.035589    1.004027
H     -0.278702   -1.933125    0.728314
H      6.769070    1.182387    0.689522
H     -6.692484    0.280938   -0.385563
H      5.573534   -0.733740    1.788436
H      5.538538    2.770453   -0.713316
H     -5.584859   -1.692551   -1.316957
H     -5.343351    2.060718    0.770757
H      3.206694   -0.987274    1.454221
H      3.068990    2.494083   -1.065762
H     -3.100503   -1.879562   -1.084157
H     -2.951121    1.834546    0.976147
H      1.205706    0.287013    1.066969
H      1.086115    1.448273   -0.300015
H     -0.978280    0.714082    0.415309
H     -1.518796   -0.687053   -2.052202
H      1.614233   -2.296152   -2.644317
