43

C     -6.821701   -0.504988   -0.635027
C      7.470484   -0.049812   -0.266803
C     -0.498334    1.599326   -1.013166
C     -5.474200   -0.363484    0.072636
C     -4.342134   -0.715146   -0.824781
C     -3.028224   -0.586601   -0.098318
C     -2.817923    0.801422    0.357316
C     -1.522882    1.014825    1.099160
C      5.158654   -0.359101   -1.035304
C      5.565817   -0.162467    1.312876
C      3.791422   -0.497690   -0.799878
C      4.212160   -0.298953    1.557276
C      6.022297   -0.195103    0.006048
C     -0.381411    0.679052    0.185074
C      3.345354   -0.464232    0.501511
O      1.067925   -1.538580   -0.268762
O      1.418876   -1.369867    2.118693
O      0.855691    0.843840    0.817603
S      1.642747   -0.636050    0.806757
H     -7.039190   -1.584890   -0.727122
H     -7.574450    0.027404    0.007953
H     -6.810902   -0.069583   -1.633580
H      7.695638   -0.536794   -1.221557
H      7.749724    1.025568   -0.239996
H      7.995219   -0.637333    0.537367
H     -1.165776    1.153031   -1.782289
H     -0.931565    2.583522   -0.751519
H      0.508641    1.781553   -1.422679
H     -5.435490    0.649801    0.516018
H     -5.475300   -1.083873    0.928315
H     -4.304847    0.034833   -1.656806
H     -4.431137   -1.748532   -1.234454
H     -3.057444   -1.270386    0.796478
H     -2.210398   -0.981092   -0.749048
H     -3.629645    1.201651    0.999426
H     -2.854291    1.460959   -0.561887
H     -1.443743    2.100165    1.392917
H     -1.502754    0.386246    2.035362
H      5.470202   -0.391234   -2.080493
H      6.291012   -0.029045    2.120542
H      3.121323   -0.627132   -1.642118
H      3.847921   -0.274234    2.579400
H     -0.477366   -0.366996   -0.133409
