43

C      5.121371    0.647790    1.160633
C     -7.343324   -0.205859   -0.459895
C      1.301207   -0.822251    1.690116
C      5.428149   -0.147692   -0.088366
C      4.706764    0.372129   -1.294453
C      3.204239    0.344995   -1.149699
C      2.704689   -1.063481   -0.921206
C      1.225229   -1.139435   -0.773078
C     -5.069126    0.125916   -1.334245
C     -5.371741    0.274055    1.021825
C     -3.711776    0.383560   -1.161348
C     -4.024513    0.527833    1.170770
C     -5.893793    0.072614   -0.236842
C      0.697930   -0.329436    0.388655
C     -3.172091    0.587434    0.088928
O     -1.254970    1.759688    1.473626
O     -0.943518    1.593877   -0.970416
O     -0.674808   -0.535303    0.439660
S     -1.464930    0.907272    0.257173
H      5.212856    1.730449    0.871395
H      4.133576    0.406691    1.572300
H      5.891055    0.392480    1.903466
H     -7.485857   -0.686064   -1.449998
H     -7.729320   -0.914639    0.295879
H     -7.862669    0.782195   -0.409834
H      1.924407   -1.703952    1.507335
H      0.487251   -1.095017    2.420156
H      1.836719    0.019909    2.148763
H      6.516415   -0.020006   -0.280632
H      5.251001   -1.211840    0.081067
H      4.973726   -0.271521   -2.150126
H      5.027169    1.405343   -1.501576
H      2.954834    1.014032   -0.293199
H      2.776936    0.815755   -2.046580
H      3.230795   -1.461929   -0.039903
H      2.985605   -1.647498   -1.821934
H      0.718793   -0.777984   -1.688533
H      0.928073   -2.192528   -0.642418
H     -5.438101   -0.025914   -2.334202
H     -6.027631    0.228702    1.860132
H     -3.068621    0.423072   -2.041272
H     -3.582717    0.691509    2.156753
H      0.880717    0.745049    0.240027
