47

C     -4.952117   -0.025707    0.398351
C     -3.736092    2.031615   -0.040562
C     -2.068821   -2.079386   -0.300408
C      4.781116    1.393649   -1.515646
C      3.406198    1.811246   -0.958822
C      1.749617   -1.239096    0.159631
C      4.774847   -0.142355   -1.451387
C      3.145390   -1.597711   -0.385146
C      0.710066    0.814512   -0.776371
C     -3.600835    0.543516   -0.043762
C     -2.527633   -1.464541    0.985027
C      1.720659    0.298381    0.180594
C      3.126242    0.607718   -0.146269
C     -1.242666    0.588682    0.733904
C     -2.585295    0.044251    0.955269
N      3.417153   -0.427412   -1.162576
O     -1.607920   -1.812256    1.991538
O     -0.683160    1.276223    1.607441
O     -3.018069    0.445337    2.225084
O     -0.580888    0.346264   -0.447184
H     -5.781601    0.658075    0.177957
H     -5.163738   -0.987971   -0.108835
H     -4.955336   -0.223657    1.489645
H     -3.023175    2.542559   -0.714531
H     -4.753641    2.277802   -0.440952
H     -3.708827    2.412859    0.993014
H     -2.780394   -2.855193   -0.613712
H     -1.085115   -2.617092   -0.178534
H     -2.014427   -1.356719   -1.144971
H      4.946338    1.768415   -2.520031
H      5.515710    1.734405   -0.765453
H      3.475540    2.755564   -0.400049
H      2.734159    1.846250   -1.828925
H      1.588008   -1.665560    1.158092
H      1.047873   -1.621168   -0.614226
H      4.995970   -0.484716   -2.498272
H      5.504507   -0.519985   -0.719573
H      3.866227   -1.597110    0.485018
H      3.139868   -2.537916   -0.935208
H      0.931129    0.404085   -1.796122
H      0.717729    1.905178   -0.854202
H     -3.426229    0.198475   -1.063159
H     -3.538110   -1.880180    1.224421
H      1.511803    0.649984    1.214217
H      3.786673    0.498286    0.721321
H     -1.347076   -2.757277    1.820488
H     -2.411656    0.039675    2.923019
