34

C      4.141698    0.274655    0.354200
C     -1.077583    1.296829    1.652173
C      0.029018    2.317302   -0.234114
C      0.268313   -2.279798   -1.189829
C     -2.545501   -0.391731    0.185865
C     -1.584732   -1.588050    0.136735
C     -1.137150   -0.231387   -1.645280
C      2.745036   -0.069999    0.724254
C     -1.804578    0.649852   -0.572697
C      0.355592   -0.149871    0.168568
C     -0.581265    1.038681    0.241137
C     -0.388243   -1.099070   -0.682949
O      2.419628   -0.577438    1.806567
O      1.660842    0.131960   -0.083380
H      4.394039    1.280886    0.692524
H      4.181455    0.272208   -0.757022
H      4.856159   -0.503451    0.688717
H     -1.070946    0.339297    2.246820
H     -2.066013    1.769405    1.669779
H     -0.379789    1.970473    2.205957
H      0.408884    2.923749    0.629303
H      0.805728    2.212092   -0.988366
H     -0.786276    2.932090   -0.680528
H      0.862064   -2.757765   -0.383239
H     -0.512162   -3.049977   -1.462800
H      0.922280   -2.204294   -2.063294
H     -3.466891   -0.651644   -0.411440
H     -2.809917   -0.122610    1.218278
H     -1.264803   -1.870891    1.159280
H     -2.073806   -2.424595   -0.389515
H     -1.944596   -0.732098   -2.184042
H     -0.554772    0.418420   -2.272149
H     -2.361946    1.466706   -0.975665
H      0.360232   -0.589936    1.196153
