29

C     -2.597929   -1.490737   -0.327872
C     -3.065978    0.724464    0.551847
C     -0.412873    1.641743   -0.361390
C      4.086795   -0.378542   -0.122047
C      3.449057    0.274594   -1.143765
C      3.359259   -0.855561    0.921020
C      2.084953    0.445717   -1.115669
C      1.972772   -0.695160    0.972356
C     -2.264125   -0.510153    0.810874
C     -0.132671    0.173981   -0.146286
C      1.327095   -0.044554   -0.045152
N     -0.869184   -0.389317    0.922292
H     -3.158573   -2.368958    0.110785
H     -3.248926   -1.053090   -1.088014
H     -1.675322   -1.866097   -0.774505
H     -2.926201    1.181250   -0.439338
H     -4.150758    0.367426    0.514092
H     -3.037168    1.446410    1.375003
H     -0.952365    2.115245    0.470409
H      0.569626    2.218059   -0.406840
H     -0.854809    1.850757   -1.368110
H      5.160256   -0.537314   -0.106921
H      4.025681    0.646479   -1.960018
H      3.852454   -1.377614    1.739129
H      1.598971    0.965348   -1.932267
H      1.383794   -1.064135    1.783028
H     -2.638168   -0.939541    1.790850
H     -0.400382   -0.345273   -1.137313
H     -0.485280   -0.135429    1.838094
