38

C     -2.614158   -0.827755    2.906930
C     -1.473500    1.313443    3.053007
C      0.835018    2.406228   -1.623083
C      1.724671    0.686516    0.127201
C     -0.988104   -1.901341    0.961585
C      0.029803   -2.367474   -0.006898
C      1.045500    0.477233   -3.095113
C      1.340551   -1.698161   -1.905312
C     -0.707548    0.393033    0.233699
C     -1.633791   -0.054120    2.482523
C      0.361890    0.976376   -1.856814
C     -0.669712   -0.502004    1.441264
C      0.623964   -1.306064   -0.851955
C      1.924799   -0.657350   -2.739496
C      0.513792    0.128407   -0.636442
O      3.110091   -0.715060   -3.139337
H     -3.293342   -0.472432    3.660558
H     -2.750061   -1.819411    2.509756
H     -1.996104    2.070489    2.441248
H     -0.386428    1.538759    3.157949
H     -1.882774    1.282329    4.084856
H      0.285447    2.865539   -0.761986
H      1.918046    2.497693   -1.553675
H      0.504657    2.982764   -2.521127
H      2.597422    0.813655   -0.558425
H      1.458269    1.662610    0.546865
H      2.037465    0.027757    0.936196
H     -0.919091   -2.554448    1.879164
H     -2.037448   -1.993405    0.608048
H      0.876768   -2.874145    0.508863
H     -0.443594   -3.182967   -0.629836
H      1.651725    1.311228   -3.535386
H      0.277393    0.155197   -3.858346
H      1.502281   -2.763009   -2.146216
H     -1.588346    0.086312   -0.379322
H     -0.834925    1.455396    0.471664
H     -0.734846    1.111620   -2.129318
H      0.334219   -0.553435    1.916711
