40

C     -3.266898    3.347923    1.383598
C     -2.775486    2.191089    0.543970
C     -3.276262   -3.056128   -0.080244
C     -2.242459   -2.782222   -0.949121
C     -3.566405   -2.137409    0.905103
C      5.168603   -1.105191    0.549361
C      4.095516   -1.149720    1.396525
C     -1.456009    1.652219    1.046839
C     -1.545946   -1.614108   -0.802528
C     -2.866562   -0.962227    1.054027
C      4.993152   -0.609325   -0.703862
C      2.863345   -0.710661    1.013389
C     -1.845214   -0.682642    0.201206
C      3.737476   -0.153709   -1.116932
C      2.658402   -0.193347   -0.279246
C     -0.985768    0.509020    0.231241
C      3.662650    0.357270   -2.480047
C      1.331128    0.259428   -0.635872
O      4.721859    0.362563   -3.209228
O      2.533793    0.837122   -3.046004
O      0.896361    0.741117   -1.674213
O      0.346016    0.136737    0.367467
H     -3.281697    3.093611    2.460235
H     -2.676204    4.268970    1.165006
H     -4.309443    3.571508    1.077549
H     -3.525546    1.433286    0.330735
H     -2.539136    2.659825   -0.467593
H     -3.832366   -3.988873   -0.197813
H     -1.973975   -3.478069   -1.745568
H     -4.371219   -2.346021    1.584981
H      6.161728   -1.446730    0.824057
H      4.260637   -1.556752    2.410997
H     -0.734845    2.497492    0.977782
H     -1.597585    1.426679    2.120953
H     -0.743467   -1.440852   -1.506163
H     -3.106027   -0.276648    1.835815
H      5.799936   -0.545203   -1.425582
H      2.018834   -0.762140    1.725549
H     -1.044756    0.897410   -0.855674
H      2.313844    0.754708   -4.030697
