48

C      4.179643   -0.221006    1.395066
C      4.177773   -0.439141   -0.932299
C      1.701761    1.166623   -0.994831
C     -3.830356   -1.084624   -0.713410
C     -1.444959    1.892108    1.334379
C     -1.074383    2.305838   -0.973876
C     -2.058377    3.140943    1.514032
C     -1.673712    3.545881   -0.835563
C     -2.750385   -0.302181   -0.428005
C      0.635665    0.142431   -1.108263
C      2.631595    1.026301    0.181117
C     -2.455102   -2.966092   -0.436294
C     -4.831911   -3.250596   -1.024351
C     -0.114848   -2.851380    0.239349
C     -3.688577   -2.441365   -0.720661
C     -1.334702   -2.159293   -0.138550
C     -0.964883    1.490083    0.114045
C     -2.142110    3.923604    0.386696
C     -1.467789   -0.807339   -0.132975
C     -0.336285    0.105248    0.069239
F     -2.729654    5.145272    0.512420
N     -5.756199   -3.893959   -1.257680
N      3.330089   -0.242656    0.210809
O     -0.302434   -4.266411    0.137449
O      0.386346   -0.094143    1.185766
H      4.845607    0.686188    1.297296
H      3.595565   -0.107047    2.320251
H      4.869262   -1.081332    1.416620
H      3.764211   -1.217438   -1.638262
H      4.302097    0.489912   -1.518706
H      5.186908   -0.803768   -0.645237
H      1.352968    2.230517   -0.946655
H      2.373866    1.037532   -1.902993
H     -4.788470   -0.632542   -0.931503
H     -1.411674    1.295574    2.252129
H     -0.710793    1.998681   -1.966490
H     -2.435509    3.453913    2.480196
H     -1.741394    4.166704   -1.725986
H     -2.897235    0.755727   -0.430370
H      1.159930   -0.819297   -1.240134
H      0.001231    0.244946   -2.036957
H      2.177846    1.216545    1.145708
H      3.406659    1.864971    0.073830
H     -2.347517   -4.022225   -0.442924
H      0.007057   -2.741406    1.373381
H      0.834497   -2.569277   -0.154594
H      0.200865   -4.571396   -0.650611
H      0.167817    0.260369    2.031905
