29

C     -2.213124    0.292483   -0.378021
C     -1.046493   -0.929018    1.405630
C     -0.053285    1.914558    1.075125
C      0.037189   -0.138827   -2.046323
C      0.400296    1.135184   -1.275432
C      1.092298   -1.364835   -0.231528
C     -0.216774   -1.122985   -0.950039
C      1.320398   -0.106108    0.570610
C     -0.917275   -0.234653    0.090053
C      0.189965    0.792896    0.176472
N      2.268931    0.103671    1.385135
O      3.218409   -0.842811    1.620206
H     -2.359214    0.324427   -1.467816
H     -3.026308   -0.391758    0.009514
H     -2.443161    1.280263    0.075093
H     -1.859130   -0.441460    1.993242
H     -1.292173   -2.000395    1.306632
H     -0.126686   -0.810461    2.045316
H     -0.674347    1.665191    1.937561
H      0.926132    2.284537    1.493309
H     -0.463258    2.799536    0.512806
H      0.910375   -0.473951   -2.678947
H     -0.791619    0.015450   -2.736205
H      1.483693    1.303847   -1.416728
H     -0.160663    2.002601   -1.620178
H      1.919365   -1.363919   -0.989664
H      1.087936   -2.257556    0.402304
H     -0.771380   -2.002871   -1.206961
H      3.559902   -1.433038    0.898834
