21

C     -2.366160   -0.215159    0.052038
C      1.889480   -0.033455    0.006386
C      1.160081   -1.283846   -0.359083
C     -0.294527    0.978920    0.721150
C     -0.899411   -0.372555    0.473271
C      1.035537    1.182936    0.087640
N     -0.233645   -1.035085   -0.606991
O      0.925947    1.763228   -1.180290
H     -2.332644    0.286480   -0.936313
H     -2.942284    0.371558    0.768587
H     -2.763956   -1.236183   -0.132692
H      2.487467   -0.231375    0.925872
H      2.658538    0.153611   -0.797012
H      1.271494   -2.082292    0.422825
H      1.570266   -1.757742   -1.293446
H     -0.260465    1.173429    1.819149
H     -0.985502    1.765400    0.312710
H     -0.833503   -0.985589    1.398513
H      1.591001    1.939042    0.711542
H     -0.739478   -1.917553   -0.805163
H      0.061762    1.536231   -1.588690
