19

C     -2.218796   -0.046148    0.392362
C      1.815393   -0.353970    0.261515
C      1.258574    0.984434    0.556357
C     -0.239377   -0.860203   -0.892265
C     -0.903737    0.333548   -0.304548
N      0.882519   -1.340609   -0.159958
N     -0.146129    1.095588    0.602733
H     -2.710833   -0.776595   -0.259159
H     -2.806099    0.846767    0.597916
H     -1.929303   -0.601748    1.323514
H      2.351007   -0.780028    1.161436
H      2.644398   -0.228952   -0.496312
H      1.651456    1.766482   -0.157142
H      1.655762    1.327180    1.559126
H     -0.023171   -0.707013   -1.990543
H     -1.005145   -1.693141   -0.900386
H     -1.225414    1.005290   -1.150434
H      1.347102   -2.095343   -0.704483
H     -0.398208    2.124460    0.560269
