44

C      6.252300    2.002530    0.101211
C     -7.238658    0.543974    0.956788
C      5.017117    1.926456   -0.496605
C      6.756264    0.875266    0.752551
C     -6.499602    1.678522    0.690352
C     -6.636582   -0.693419    1.092551
C      4.296711    0.744269   -0.445050
C      6.015059   -0.300072    0.791179
C     -5.121503    1.527820    0.563422
C     -5.248869   -0.815527    0.959898
C      3.993995   -1.643964    0.241971
C     -3.032899    0.231299    0.545329
C      4.777559   -0.379493    0.193371
C     -4.512418    0.317305    0.694025
C      0.394796   -1.311151   -0.724088
C     -0.351555   -0.008104   -0.579721
C      1.599669   -1.387948    0.113363
C     -1.598179   -0.124422   -1.364385
N      2.741963   -1.550371   -0.423327
N     -2.733141   -0.012207   -0.825685
O      0.753319   -1.515312   -2.051449
O      0.409985    1.084594   -0.983199
O      1.548515   -1.288657    1.503150
O     -1.501359   -0.362371   -2.722378
H      6.818476    2.932215    0.060496
H     -8.323508    0.640676    1.060266
H      4.590775    2.767487   -1.008028
H      7.721814    0.920280    1.224936
H     -6.959120    2.644990    0.583148
H     -7.216994   -1.578169    1.300758
H      3.325491    0.721039   -0.927983
H      6.450474   -1.161354    1.314297
H     -4.567052    2.430894    0.355061
H     -4.814396   -1.780329    1.069604
H      3.947320   -1.961409    1.294785
H      4.617380   -2.406904   -0.291092
H     -2.704646   -0.644032    1.154177
H     -2.521993    1.117705    0.970993
H     -0.350245   -2.118185   -0.470744
H     -0.627492    0.174509    0.477583
H      0.478764   -2.387230   -2.401373
H      0.009698    1.888514   -0.562058
H      2.333253   -0.979801    2.065625
H     -2.290485   -0.759914   -3.244833
