15

C     -0.296521    1.429603    0.511391
C     -0.287660   -0.091269    0.294496
C     -1.583595   -0.599437   -0.140410
C      1.993174    0.136654   -0.191677
N      3.170261   -0.316806   -0.357609
N      0.746731   -0.381792   -0.646315
O     -1.654749   -1.208978   -1.240183
O     -2.749538   -0.457812    0.575986
S      1.528568    1.640376    0.709311
H     -0.630926    1.963134   -0.382478
H     -0.819382    1.668295    1.436183
H      0.039999   -0.509450    1.285893
H      3.395419   -1.181991   -0.880717
H      0.635970   -0.910779   -1.566131
H     -3.487751   -1.179747    0.592260
