45

C     -3.512122   -1.714534    0.153579
C     -3.072825    1.578334   -0.082059
C      2.818566   -2.784811    0.005520
C      1.488326   -2.537966   -0.269784
C      3.169762   -0.601528    0.873850
C      1.343757    1.009322    0.948670
C     -1.223930   -1.965168   -0.730981
C     -2.615399   -1.482683   -1.044715
C     -2.011268    0.755822   -0.827219
C      1.845248   -0.326394    0.610121
C      3.652856   -1.846853    0.564856
C      1.001575   -1.287614    0.039873
C     -0.887819    0.355950    0.038972
C      0.785986    1.637604   -1.299345
C     -0.355608    2.654704    0.632599
C      0.252954    3.958209   -1.188974
C      0.194324    1.425425    0.020160
N      0.799327    2.812244   -1.831068
N     -0.328411    3.814172    0.078782
N     -0.349165   -0.952086   -0.209614
N      5.002375   -2.178062    0.815521
O      1.339565    0.569422   -1.990387
O     -0.936608    2.497978    1.904455
O      0.308119    5.088931   -1.788183
O      5.849324   -1.235166    1.380010
O      5.452772   -3.307129    0.538807
O     -2.663245   -0.208875   -1.536760
H     -3.141615   -1.197450    1.059030
H     -4.568306   -1.512553   -0.063557
H     -3.440278   -2.810139    0.387452
H     -2.849586    2.646132   -0.060305
H     -3.185361    1.228209    0.960791
H     -4.007925    1.471982   -0.668795
H      3.222010   -3.745580   -0.224457
H      0.833602   -3.273886   -0.707173
H      3.842275    0.136700    1.318446
H      2.147956    1.747943    0.814641
H      0.969023    1.074550    2.003525
H     -0.772563   -2.475348   -1.634631
H     -1.296506   -2.764107    0.044835
H     -3.008238   -2.148213   -1.845372
H     -1.606983    1.486304   -1.590514
H     -1.256368    0.349811    1.101351
H      1.881820    0.700709   -2.855663
H     -1.111394    3.355688    2.431592
