38

C     -1.915605   -3.311626    0.291374
C      3.705851   -1.475946   -0.475167
C     -0.810017    2.792446   -1.058281
C     -2.582339    0.646365   -0.251596
C     -2.518962   -0.852702   -0.085278
C     -0.170335   -1.756016    0.482076
C      0.729394   -1.085917   -0.447638
C     -2.060649    1.517758    0.796327
C     -1.678075   -1.791151    0.183456
C      3.094432   -0.349746   -0.187100
C      1.707102   -0.186871    0.230154
C      1.408943    1.303518    0.012298
C      0.353469    1.667147    1.001950
C      3.650988    1.003454   -0.214347
C     -0.815976    2.239896    0.326094
O      4.810789    1.284077   -0.617577
O      2.668784    1.887087    0.280126
O     -0.051113    2.962854    1.231776
H     -2.828907   -3.785263    0.260018
H     -1.244263   -3.824943   -0.475585
H     -1.452719   -3.664376    1.284885
H      3.151888   -2.398470   -0.406121
H      4.739719   -1.547613   -0.781216
H     -0.569750    2.086337   -1.861994
H     -1.813290    3.281321   -1.230688
H     -0.083759    3.631332   -1.158423
H     -2.144063    0.976589   -1.244707
H     -3.673153    0.944800   -0.404617
H     -3.656801   -1.057351   -0.315890
H      0.026045   -1.346159    1.506941
H      0.220503   -2.821195    0.620336
H      1.314712   -1.767912   -1.122344
H      0.125486   -0.449537   -1.156477
H     -2.786781    2.303531    1.072990
H     -1.840156    0.963617    1.743024
H      1.661763   -0.424303    1.333968
H      1.150479    1.410159   -1.039292
H      0.176367    0.994809    1.876543
