35

C      1.184327   -0.708346    1.316959
C      1.669640   -1.762775    0.374559
C     -0.036914    0.040571    0.907997
C      2.060093   -1.224676   -0.987064
C     -2.497419   -1.086937   -1.680452
C     -2.345506    0.281144   -1.087286
C     -1.258738   -0.770182    0.774596
C      3.167280   -0.246906   -0.756154
C     -2.483897   -0.032540    0.393850
C     -3.610122    1.805697   -0.134500
N      3.931714    1.969900   -0.958674
N     -3.386341    1.211334   -1.266645
N     -2.709428    1.275940    0.852180
N      3.004044    0.960792   -1.107570
O      4.327175   -0.729513   -0.160393
O     -4.589918    2.801553    0.039080
S     -1.226276   -1.930761   -0.630355
H      1.007743   -1.242327    2.302151
H      2.043562   -0.021657    1.548700
H      2.580843   -2.223186    0.863238
H      0.941010   -2.582430    0.332343
H      0.189418    0.488378   -0.111515
H     -0.153214    0.937906    1.556637
H      1.273773   -0.720472   -1.532814
H      2.442817   -2.100545   -1.564844
H     -2.204258   -1.145359   -2.742720
H     -3.494247   -1.470456   -1.464109
H     -1.369080    0.748664   -1.338149
H     -1.461144   -1.370756    1.704606
H     -3.345738   -0.725207    0.511239
H      3.806275    2.872783   -1.480462
H      4.742505    1.832946   -0.336741
H     -2.359141    1.779446    1.662296
H      5.185028   -0.192863   -0.352950
H     -5.025867    3.280838   -0.719980
