33

C      4.735303    0.365965   -0.596545
C      3.407504   -0.334746   -0.272469
C      2.387939   -0.052075   -1.280838
C      1.231661    0.550543   -1.060021
C      0.857802    1.007831    0.269788
C     -2.494438    0.033588    1.489830
C     -1.720630   -1.267041    1.714642
C     -1.972421   -0.316826   -0.836401
C     -1.677149    0.606105    0.290189
C     -0.322041    0.450701    0.927890
C     -0.334707   -0.979074    1.248280
C     -3.463326   -0.299167   -1.076762
O      0.558793   -1.767585    1.163222
O     -4.230510   -1.176604   -0.611254
O     -4.045819    0.705655   -1.834012
H      5.495976   -0.041845    0.080795
H      4.948628    0.135433   -1.658338
H      4.647661    1.458867   -0.481523
H      3.136063   -0.303608    0.769263
H      3.684737   -1.438655   -0.442493
H      2.584693   -0.366087   -2.337375
H      0.597333    0.696005   -1.947920
H      0.725681    2.165166    0.250615
H      1.714817    0.928838    0.991927
H     -3.530533   -0.115841    1.252499
H     -2.312108    0.747522    2.332743
H     -2.229777   -2.059747    1.160103
H     -1.738516   -1.534401    2.790623
H     -1.521140   -0.046036   -1.813775
H     -1.685118   -1.366370   -0.657134
H     -1.972072    1.621953    0.055606
H     -0.463997    0.963988    1.954457
H     -5.000288    1.027550   -1.716342
