48

C     -5.727013   -1.228175    1.968394
C      4.876296   -1.686807    2.715040
C      4.354207   -2.397578    0.319928
C     -3.304487   -1.508595   -0.719911
C      2.896634    0.967701   -2.109306
C      3.608458    2.040208    0.084787
C     -5.622270   -0.714056    0.723780
C     -5.265762    0.678610    0.507101
C      3.269647   -0.496438    1.341409
C     -2.695123    2.008757   -1.810241
C      4.129690   -1.481812    1.458542
C     -3.221094   -0.012316   -0.772582
C     -4.029127    0.892518   -0.267996
C      2.508269   -0.287593    0.059684
C     -3.516168    2.245347   -0.604201
C     -2.092943    0.678153   -1.452418
C      1.414674    0.696511    0.019426
C      0.218462    0.488505   -0.852250
C      2.721091    1.026743   -0.608691
O     -3.788088    3.258350    0.055181
O      0.396780   -0.132219   -1.916702
O     -1.032451    0.938729   -0.540050
H     -5.989279   -2.256095    2.166035
H     -5.534901   -0.561701    2.795998
H      4.466114   -2.590345    3.212313
H      5.962062   -1.848173    2.540888
H      4.709312   -0.822152    3.406090
H      3.491260   -3.119794    0.308432
H      5.298151   -2.977738    0.449675
H      4.329878   -1.881494   -0.659132
H     -3.998003   -1.942905   -1.436626
H     -3.524967   -1.890255    0.284246
H     -2.292951   -1.941119   -1.009428
H      2.756882   -0.065450   -2.490668
H      2.244467    1.683119   -2.648058
H      3.947897    1.242008   -2.339703
H      3.229895    3.052496   -0.210234
H      3.482402    1.980351    1.194459
H      4.655420    1.972174   -0.232857
H     -5.834792   -1.415857   -0.072553
H     -6.148640    1.226308    0.053989
H     -5.091902    1.170121    1.510668
H      3.107645    0.172513    2.177532
H     -1.861772    2.733377   -1.895054
H     -3.300224    1.938556   -2.729006
H      2.362033   -1.201485   -0.578689
H     -1.737580    0.115232   -2.338359
H      1.171909    1.253765    0.941116
