32

C      3.874875    0.080763   -1.408204
C      3.417845   -0.545319   -0.097283
C      2.341467   -1.473404   -0.374875
C      1.106241   -1.379057    0.107588
C      0.690527   -0.287775    1.000188
C     -2.300119    1.347328   -0.442935
C     -2.042048    2.257937    0.770354
C     -1.920609   -1.123792   -0.760825
C     -1.734822    0.018102    0.140628
C     -0.385441    0.526418    0.445411
C     -0.762907    1.717493    1.315357
C     -3.400369   -1.307799   -1.026561
O     -0.159976    2.153332    2.262498
O     -4.300318   -0.658535   -0.473690
O     -3.757467   -2.276732   -1.958046
H      3.236092   -0.245771   -2.261054
H      3.760184    1.198246   -1.358009
H      4.912432   -0.184486   -1.683643
H      4.317084   -1.191978    0.202560
H      3.331149    0.165307    0.707641
H      2.566048   -2.318513   -1.034469
H      0.438942   -2.176708   -0.198277
H      0.364689   -0.743611    2.005566
H      1.539082    0.407945    1.239401
H     -1.547021    1.635803   -1.201904
H     -3.312968    1.299511   -0.759937
H     -2.895258    2.102806    1.461600
H     -1.935134    3.313631    0.438084
H     -1.332347   -1.161089   -1.669737
H     -1.709925   -2.057521   -0.151363
H     -2.368012   -0.137904    1.055699
H     -0.031917    1.045371   -0.511195
