32

C     -4.454483    0.965988    0.039657
C     -3.310122   -0.053288    0.191715
C     -2.392038    0.158155   -0.947873
C     -1.122767    0.492028   -0.790947
C     -0.416208    0.706352    0.468261
C      2.628983   -1.321623   -0.216039
C      1.614599   -2.382830    0.229433
C      2.528993    1.181199   -0.422968
C      1.795999   -0.104273   -0.397299
C      0.753719   -0.226744    0.663299
C      0.379827   -1.648269    0.552678
C      3.295407    1.509725    0.767891
O     -0.719153   -2.103148    0.699764
O      3.320865    0.737526    1.743887
O      4.004947    2.687163    0.826119
H     -3.975076    1.925938   -0.170219
H     -5.105495    0.956664    0.924875
H     -5.021094    0.639726   -0.852200
H     -3.838357   -1.039047    0.119657
H     -2.883429    0.047138    1.174812
H     -2.775364    0.033423   -1.986528
H     -0.561395    0.614852   -1.749669
H      0.047486    1.743010    0.504918
H     -1.069510    0.602596    1.324664
H      3.398626   -1.270001    0.551882
H      3.012986   -1.658596   -1.204277
H      1.484678   -3.169798   -0.523761
H      1.951971   -2.887301    1.165517
H      1.791349    1.983585   -0.702922
H      3.238365    1.148627   -1.289516
H      1.267903   -0.207673   -1.382112
H      1.127786   -0.061105    1.689504
