33

C      3.768997   -0.701528    0.669891
C      3.151564   -0.578112   -0.733524
C      2.698959    0.780111   -0.891251
C      1.471690    1.106686   -1.120068
C      0.396258    0.158114   -1.247428
C     -1.565045   -1.488634    0.913876
C     -0.119465   -1.307098    1.299396
C     -3.081803    0.288675    0.201933
C     -1.804721   -0.446174   -0.180649
C     -0.634681    0.473464   -0.153886
C      0.056893    0.163454    1.133992
C     -3.394482    1.320811   -0.812473
O      0.637162    0.933336    1.886361
O     -2.641952    1.460395   -1.804507
O     -4.526034    2.107699   -0.625218
H      4.760997   -0.217724    0.640880
H      3.158873   -0.133324    1.412491
H      3.792599   -1.748316    1.009517
H      2.481211   -1.404516   -0.839423
H      4.021027   -0.729828   -1.442530
H      3.454755    1.574184   -0.809370
H      1.212110    2.173840   -1.227682
H     -0.163721    0.358510   -2.210333
H      0.576094   -0.894632   -1.221912
H     -1.773655   -2.502645    0.514651
H     -2.169029   -1.260260    1.813220
H      0.061927   -1.626000    2.347028
H      0.583942   -1.809235    0.598426
H     -2.982915    0.793928    1.171666
H     -3.944722   -0.411488    0.218324
H     -1.909790   -0.913342   -1.162507
H     -0.938002    1.521689   -0.221054
H     -4.635041    2.957960   -1.156538
