38

C      2.953436   -2.139627    0.194539
C     -0.039038    1.690309   -2.370282
C     -3.203825   -0.289088   -0.551505
C     -1.777290   -1.996471    0.508594
C      1.535405   -0.052117    0.028995
C      0.514467   -0.777984   -0.469685
C      3.788664   -0.002750    0.865238
C     -1.238039    2.176169   -0.345415
C     -1.833024    0.340346    1.362771
C      2.780705   -0.671048    0.381131
C     -0.725325    1.243386   -1.126194
C     -1.916270    1.764539    0.880546
C      3.790856    1.415665    1.107559
C     -1.878858   -0.531776    0.142771
C     -0.787245   -0.199276   -0.849393
O     -2.581460    2.579211    1.560200
O      2.834673    2.161122    0.883196
O      4.957658    2.008063    1.637094
O     -1.163576   -0.825820   -2.061027
H      2.307623   -2.725443    0.897918
H      3.998137   -2.460040    0.311486
H      2.643496   -2.428483   -0.835377
H      0.612447    2.570157   -2.193354
H     -0.835938    1.968775   -3.101992
H      0.583282    0.907455   -2.825108
H     -3.104043    0.609497   -1.222745
H     -4.017085   -0.097984    0.155095
H     -3.453436   -1.139718   -1.240456
H     -1.038530   -2.091821    1.316145
H     -1.481373   -2.552013   -0.414906
H     -2.741390   -2.386507    0.870574
H      1.281449    0.986717    0.112576
H      0.709000   -1.834411   -0.578109
H      4.738876   -0.560312    1.119403
H     -1.147158    3.220839   -0.625805
H     -2.695005    0.119592    1.991531
H     -0.884794    0.184310    1.902173
H     -1.487471   -0.183464   -2.720244
