91

C      0.490734   -4.076686    0.380188
C     -0.072860   -3.120473    2.552949
C      7.302546   -1.882814   -0.693629
C      4.986787    4.345390   -0.139600
C     -6.067260    0.061477   -2.980202
C     -6.896861    1.632575    2.732349
C      6.311197   -2.153811   -1.805422
C      6.677855   -2.398561    0.573579
C      5.963766    3.199709   -0.239434
C      3.673603    4.000191   -0.779647
C     -4.900792    1.053839   -3.088818
C     -5.580037   -1.194554   -2.309822
C     -6.039586    2.373589    1.764716
C     -6.636397    0.157424    2.813528
C      5.134633   -1.254000   -1.553565
C      5.363360   -1.776502    0.903042
C      5.354057    1.928857    0.348474
C      3.129153    2.682958   -0.269456
C     -4.431831    1.238228   -1.634232
C     -4.103212   -1.206232   -2.058805
C     -4.626995    1.871690    1.670593
C     -5.908597   -0.246238    1.530354
C      1.682045   -0.222229   -0.579440
C     -1.583379   -0.012107    0.970934
C      4.472858   -1.469212   -0.234029
C      4.137572    1.574298   -0.478973
C     -3.619081    0.023242   -1.315868
C     -4.534006    0.377261    1.626863
C      0.800076   -0.673559    0.592652
C     -0.616930   -0.895785    0.179058
C      0.182705   -2.765019    1.108915
O      1.260841   -1.928647    0.958300
O     -0.908525   -2.204753    0.485952
P      3.387675    0.004218    0.105666
P     -3.317700   -0.299227    0.450198
H      1.057072   -3.918913   -0.541782
H     -0.478062   -4.568762    0.150861
H      1.084773   -4.750946    1.055511
H      0.560769   -3.996757    2.797256
H     -1.123210   -3.460375    2.654370
H      0.211226   -2.320822    3.246844
H      7.545889   -0.822826   -0.606195
H      8.242428   -2.484633   -0.843367
H      4.888161    4.612757    0.933913
H      5.432166    5.209792   -0.644209
H     -6.795015    0.553055   -2.270646
H     -6.540949   -0.111264   -3.961038
H     -6.910089    2.115879    3.751472
H     -7.964189    1.745408    2.378603
H      5.976710   -3.201596   -1.760885
H      6.727183   -1.875372   -2.800051
H      7.410813   -2.212448    1.393549
H      6.595885   -3.500690    0.477646
H      6.204896    2.966302   -1.295306
H      6.901989    3.454557    0.258281
H      2.946707    4.790936   -0.527542
H      3.796831    3.945538   -1.861524
H     -4.071102    0.599689   -3.663019
H     -5.242541    2.003667   -3.519453
H     -5.797809   -2.041515   -2.998568
H     -6.176466   -1.420419   -1.379547
H     -6.477165    2.451380    0.753322
H     -5.981590    3.440661    2.129906
H     -7.604390   -0.415414    2.908826
H     -5.961729   -0.035983    3.679529
H      4.410168   -1.427650   -2.386576
H      5.477495   -0.205434   -1.664796
H      5.563415   -0.843583    1.474206
H      4.850421   -2.457611    1.632021
H      6.095357    1.139028    0.223000
H      5.068666    2.059156    1.405431
H      2.944544    2.747467    0.831348
H      2.166366    2.504344   -0.746827
H     -3.839725    2.182416   -1.586769
H     -5.341939    1.377745   -1.059356
H     -3.858502   -2.089489   -1.449101
H     -3.600298   -1.334924   -3.043804
H     -4.080356    2.314755    2.550712
H     -4.153511    2.319821    0.785442
H     -6.461926    0.207284    0.687777
H     -5.850031   -1.332928    1.422876
H      1.273750    0.690816   -1.013073
H      1.709499   -1.009316   -1.353146
H     -1.423657   -0.209215    2.032101
H     -1.292831    1.046211    0.719774
H      3.764046   -2.336817   -0.364588
H      4.390930    1.562692   -1.541475
H     -2.602238    0.233175   -1.776748
H     -4.172595    0.077032    2.660098
H      0.823854    0.061624    1.409457
H     -0.787505   -0.772019   -0.919711
