26

C      3.639335   -0.794134    0.342496
C      2.282488   -0.877790    0.558937
C      4.129640    0.173871   -0.507585
C     -0.870813   -0.753865    0.826765
C     -0.275640    1.164707   -0.833876
C     -0.004640    0.110167    0.001305
C      1.391513   -0.019973   -0.051445
C     -2.287340   -0.830045    0.432111
C      1.925842    0.926104   -0.888697
C     -2.906103    0.517892    0.491429
N     -2.600223   -1.534489   -0.765151
N      3.273707    1.009795   -1.103561
N      0.889338    1.644040   -1.360394
O     -3.744936    0.845283   -0.396568
O     -2.623831    1.460055    1.463626
H      4.304836   -1.489164    0.841040
H      1.843156   -1.626730    1.221387
H      5.223088    0.252833   -0.687113
H     -0.773605   -0.421842    1.912523
H     -0.446963   -1.801508    0.874168
H     -1.256913    1.555275   -1.037890
H     -2.854320   -1.403327    1.255259
H     -3.665362   -1.599778   -0.797212
H     -2.256138   -1.050914   -1.597996
H      0.972435    2.434127   -2.017324
H     -3.308552    2.109411    1.823766
