91

C      0.357973   -3.303877   -0.796209
C      0.446344   -2.506322   -3.121635
C     -5.364879    3.818634    0.964722
C     -6.483624   -2.649702   -0.253820
C      4.806454    0.165427    3.889546
C      5.991165    1.455372   -2.767267
C     -4.922533    3.159827    2.256001
C     -4.268186    3.870533   -0.061337
C     -6.485118   -1.143594   -0.539461
C     -5.278557   -2.875662    0.651557
C      5.154251    1.044208    2.712406
C      3.721137   -0.788497    3.423433
C      4.845171    2.425689   -2.661347
C      5.676982    0.086015   -2.272570
C     -4.482674    1.732327    2.043860
C     -3.428976    2.625959    0.041441
C     -5.301408   -0.855094   -1.404654
C     -4.051201   -2.660344   -0.188679
C      5.767709    0.135878    1.653948
C      4.170519   -1.598797    2.250535
C      4.174680    2.191770   -1.324440
C      4.204460   -0.186118   -2.109461
C     -1.519404    0.312121    0.096911
C      1.606268   -0.345218    0.837118
C     -4.249040    1.444391    0.563632
C     -3.993602   -1.291771   -0.814737
C      4.639275   -0.715589    1.103656
C      3.492161    0.841071   -1.287516
C     -0.614204   -0.832021   -0.224119
C      0.784537   -0.280585   -0.416546
C      0.369745   -2.084361   -1.674871
O     -0.840148   -1.402608   -1.463407
O      1.322347   -1.156735   -1.341314
P     -3.269798   -0.114969    0.372168
P      3.286735    0.354814    0.472678
H      1.096366   -3.294318    0.005405
H      0.537229   -4.231249   -1.413567
H     -0.648229   -3.473190   -0.336815
H     -0.184674   -1.876661   -3.762875
H      0.009271   -3.542055   -3.179398
H      1.471817   -2.488959   -3.528541
H     -5.636724    4.862543    1.217061
H     -6.244631    3.285334    0.564647
H     -7.371647   -2.951416    0.318462
H     -6.338007   -3.224990   -1.178607
H      4.420415    0.772116    4.708436
H      5.693059   -0.424994    4.198584
H      6.824052    1.866251   -2.157689
H      6.334404    1.478066   -3.826176
H     -4.114887    3.751977    2.701192
H     -5.797716    3.168812    2.935927
H     -3.648901    4.778825    0.085933
H     -4.753657    3.893475   -1.065672
H     -7.399825   -0.973834   -1.164462
H     -6.513538   -0.609454    0.408283
H     -5.238761   -3.882990    1.065461
H     -5.297825   -2.082456    1.434912
H      4.234650    1.486199    2.305213
H      5.850738    1.868738    2.982781
H      3.467118   -1.494278    4.242033
H      2.830407   -0.172452    3.219430
H      5.282629    3.453862   -2.624646
H      4.134826    2.364554   -3.505868
H      6.229152   -0.195197   -1.357479
H      6.037223   -0.637921   -3.062085
H     -3.509061    1.555699    2.558882
H     -5.214099    1.005999    2.442023
H     -3.013624    2.365834   -0.963127
H     -2.616919    2.824117    0.771163
H     -5.216039    0.207591   -1.686146
H     -5.451148   -1.412471   -2.364431
H     -4.009455   -3.426640   -1.013186
H     -3.174211   -2.772626    0.486061
H      6.185993    0.746907    0.848895
H      6.542982   -0.500932    2.118631
H      3.353071   -2.243802    1.920610
H      5.056999   -2.191826    2.574486
H      3.436992    3.030765   -1.190033
H      4.943791    2.279592   -0.553409
H      4.105877   -1.181269   -1.641366
H      3.762052   -0.233689   -3.108290
H     -1.128762    0.796926    1.020569
H     -1.440859    1.071745   -0.707881
H      1.636671   -1.337634    1.285031
H      1.141277    0.344138    1.596089
H     -5.238314    1.398540    0.090898
H     -3.288878   -1.384191   -1.693321
H      5.024544   -1.409752    0.325355
H      2.481079    0.991096   -1.719773
H     -0.597068   -1.623197    0.523171
H      0.698212    0.752570   -0.761007
