25

C     -2.994186   -0.175523   -0.728045
C     -1.532495   -0.592466   -0.840297
C      3.449341   -0.422065   -0.146538
C      2.598485   -1.073798   -0.992401
C      2.942861    0.511398    0.727280
C      1.241938   -0.813735   -0.986878
C      1.595090    0.767979    0.730886
C      0.728724    0.116909   -0.117335
C     -1.235359    0.504289    1.306336
C     -0.719090    0.433360   -0.071149
O     -1.712303    1.576139    1.746422
O     -1.198037   -0.596872    2.113455
O     -0.870416    1.679461   -0.682284
H     -3.321316   -0.174706    0.318919
H     -3.175919    0.823621   -1.156830
H     -3.617217   -0.892480   -1.313458
H     -1.269534   -0.605928   -1.913194
H     -1.429795   -1.584013   -0.383775
H      4.494542   -0.630772   -0.159492
H      3.004653   -1.805030   -1.675036
H      3.598567    1.033860    1.400218
H      0.608628   -1.351236   -1.670769
H      1.204386    1.503057    1.420580
H     -1.511646   -0.633341    3.072145
H     -0.879904    2.401893    0.001241
