25

C     -2.981032   -0.682034   -0.583493
C      3.344083   -0.371681    0.360360
C     -0.959616   -1.098699    0.670223
C      0.181831   -1.079619   -0.324294
C     -1.272416    1.138419   -0.421972
C      2.192183    1.952039    0.340060
C     -1.917846   -0.007059    0.283351
C      2.187272    0.576636    0.215794
C      0.910027    0.172125   -0.073932
C      0.166887    1.338246   -0.117203
O      0.967419    2.356535    0.133136
H     -3.847259   -0.931179    0.059820
H     -3.254406    0.000045   -1.419665
H     -2.613921   -1.636612   -1.012103
H      3.878275   -0.463586   -0.590841
H      4.016773   -0.050229    1.182016
H      2.965924   -1.379794    0.633409
H     -0.537487   -0.800747    1.674961
H     -1.441257   -2.090087    0.738566
H     -0.271430   -1.002653   -1.350522
H      0.819071   -1.980346   -0.246934
H     -1.837408    2.094024   -0.298902
H     -1.307140    0.957101   -1.537813
H      3.024320    2.572308    0.560887
H     -2.412848    0.416849    1.191253
