24

C      3.331586   -0.140421    0.005859
C      3.056355    1.126594   -0.461615
C      2.296348   -1.041938    0.278190
C      1.732822    1.464584   -0.647538
C     -0.083181   -1.659056    0.382781
C     -1.434740   -1.218597   -0.066334
C     -2.986835    0.737649   -0.191345
C      0.980870   -0.669563    0.080342
C     -1.613069    0.244591    0.196608
C      0.695211    0.597980   -0.387828
O     -3.027041    2.105971    0.074974
O     -0.637868    0.938911   -0.575257
H      4.369360   -0.434892    0.162176
H      3.893496    1.780322   -0.654861
H      2.535297   -2.044809    0.649257
H      1.493085    2.447346   -1.011430
H      0.151953   -2.613354   -0.168807
H     -0.046302   -1.874519    1.468747
H     -1.647379   -1.451935   -1.122915
H     -2.190399   -1.756184    0.570949
H     -3.730708    0.259223    0.510454
H     -3.231750    0.497711   -1.244759
H     -1.478010    0.420940    1.282903
H     -2.429103    2.283447    0.869451
