18

C     -2.464347   -0.472748   -0.545037
C     -1.405206    0.246569    0.225565
C      0.913244    0.464943    0.935325
C      2.195926    0.511022    0.152568
C     -0.046037   -0.362424    0.110734
C      1.886031   -0.345838   -1.020746
O      2.760934   -0.967718   -1.706612
O      0.508893   -0.299500   -1.167683
H     -2.039034   -0.873607   -1.465647
H     -3.317630    0.224321   -0.734404
H     -2.845816   -1.333127    0.077819
H     -1.407710    1.306091   -0.095890
H     -1.690166    0.238665    1.297971
H      1.047118   -0.075484    1.904758
H      0.505106    1.470585    1.116828
H      3.068103    0.159668    0.718338
H      2.406255    1.523427   -0.236775
H     -0.075663   -1.414846    0.432889
