47

C      3.600960   -0.502030   -1.227888
C     -2.340618    1.725202   -0.454817
C     -3.351789    1.032684    0.407611
C     -1.614273    2.747346    0.377138
C     -3.462012   -0.447315    0.115097
C     -0.268457    3.120079   -0.209521
C     -2.131378   -1.051518   -0.202755
C      0.860227    2.519383    0.584296
C     -2.073727   -2.541108    0.112309
C      1.459644    1.304379   -0.123648
C     -0.766434   -3.040878   -0.516670
C      2.803241    1.055364    0.475509
C      0.372975   -2.855578    0.438768
C      2.418532   -1.400454    0.799475
C      3.303359   -0.367281    0.220955
C      1.477579   -2.036481   -0.108676
O      1.564403   -1.920140   -1.308748
H      4.546933    0.083562   -1.429217
H      2.845363   -0.057367   -1.903015
H      3.864532   -1.550203   -1.500151
H     -2.837780    2.251354   -1.315961
H     -1.622051    1.012452   -0.943362
H     -4.343302    1.480553    0.210554
H     -3.114791    1.142209    1.489163
H     -2.266173    3.638697    0.484591
H     -1.434830    2.345584    1.389857
H     -4.167139   -0.618842   -0.722871
H     -3.883075   -0.941090    1.034704
H     -0.193610    2.901011   -1.289350
H     -0.168774    4.235763   -0.116877
H     -1.337767   -0.581368    0.414796
H     -1.915370   -0.974689   -1.300050
H      0.469207    2.254198    1.577546
H      1.677723    3.257821    0.756257
H     -2.950842   -3.081628   -0.315860
H     -2.021829   -2.703272    1.221234
H      0.793815    0.461958    0.056512
H      1.504160    1.582524   -1.204833
H     -0.937180   -4.100550   -0.791785
H     -0.609870   -2.501213   -1.484781
H      2.849426    1.312365    1.546983
H      3.533723    1.723730   -0.048258
H      0.773258   -3.884094    0.664514
H     -0.017841   -2.460125    1.397655
H      2.998407   -2.218154    1.318426
H      1.821392   -0.931992    1.635763
H      4.292052   -0.420849    0.766261
