41

C     -1.460483    4.266271   -0.459306
C     -1.645408   -2.915823    1.168023
C     -0.754640    3.428106   -1.499872
C      4.707342   -0.489822   -0.345903
C      3.872593    0.300265   -1.079547
C      4.310567   -0.859317    0.928793
C      2.656778    0.719486   -0.550248
C      3.113592   -0.435031    1.423541
C      0.979262    0.792676    1.318181
C     -0.200255   -0.092453    1.167482
C     -1.848639   -2.462932   -0.256194
C      2.221608    0.384769    0.694028
C     -0.739878   -0.246880   -0.200618
C     -3.236466   -2.963199   -0.632174
C     -1.195927    1.125941   -0.665432
N     -1.816849   -1.097069   -0.410374
O     -4.066904   -2.091483   -0.946029
O     -3.559400   -4.284266   -0.629917
O     -2.465419    1.365729   -0.701760
O     -0.395530    2.144132   -1.058743
H     -2.057409    5.030800   -0.989806
H     -0.712766    4.798993    0.187116
H     -2.180442    3.662669    0.123167
H     -2.268210   -3.823540    1.390854
H     -1.941521   -2.185712    1.933902
H     -0.603404   -3.229565    1.368668
H     -1.544059    3.247647   -2.301002
H      0.095032    3.898367   -1.989090
H      5.660946   -0.840195   -0.712023
H      4.170866    0.601771   -2.093703
H      4.954945   -1.496458    1.558805
H      2.063148    1.346919   -1.198211
H      2.779840   -0.711215    2.419483
H      1.183782    0.844379    2.439759
H      0.759312    1.861491    1.055721
H     -1.005239    0.335237    1.832840
H      0.080282   -1.056521    1.657795
H     -1.163359   -3.034439   -0.951488
H      0.151277   -0.535805   -0.853826
H     -2.642592   -0.647861   -0.858170
H     -4.256370   -4.656063   -1.284722
