30

C      1.708866   -0.197931    1.207914
C      1.690627    0.502821   -1.109908
C      0.198951   -2.143209   -0.676684
C     -0.927201    0.665426    1.506545
C     -1.089833   -0.054757   -1.246055
C     -0.109685    1.336320    0.416504
C     -0.958849    1.412868   -0.810203
C     -1.035079   -0.802616    1.063443
C      0.835397    0.179748    0.061317
C     -0.252117   -0.830767   -0.232802
O     -0.451256    2.205179   -1.810090
O     -2.384067   -1.072542    0.856267
H      2.193248    0.743143    1.581772
H      2.548201   -0.810828    0.808191
H      1.210619   -0.660275    2.055047
H      1.178474    0.540475   -2.077049
H      2.213645    1.469771   -0.891326
H      2.484142   -0.259445   -1.185561
H      0.037160   -2.922279    0.104898
H      1.286292   -2.132852   -0.903812
H     -0.397605   -2.478911   -1.558384
H     -1.928469    1.142086    1.549858
H     -0.405507    0.753044    2.478160
H     -2.160712   -0.369848   -1.193455
H     -0.709754   -0.205546   -2.269868
H      0.395066    2.229817    0.714033
H     -1.984169    1.803176   -0.558594
H     -0.639093   -1.488058    1.826372
H      0.210882    2.827572   -1.428725
H     -2.758173   -1.381582    1.722195
