30

C     -3.496842   -0.076959    0.110503
C     -2.439413   -0.015863    1.188145
C     -2.928131    0.901196   -0.901222
C      2.042152   -1.394845   -0.078938
C      1.724644    0.790797    0.577764
C      3.200806   -0.875255   -0.932383
C      2.766507    1.276241   -0.410993
C     -0.145042   -0.713032    0.625304
C     -1.184424    0.381182    0.449090
N     -1.547413    0.476098   -0.961954
N      1.048270   -0.318632   -0.077296
O      3.757982    0.272723   -0.432787
H     -3.496864   -1.080628   -0.335714
H     -4.493829    0.237944    0.473536
H     -2.711009    0.795168    1.915234
H     -2.347874   -0.969574    1.723484
H     -3.436225    0.809949   -1.887299
H     -3.016097    1.909652   -0.472675
H      1.601091   -2.234921   -0.657945
H      2.371179   -1.690630    0.915839
H      1.097147    1.581231    0.949396
H      2.333879    0.406793    1.455072
H      2.781840   -0.637947   -1.936994
H      3.966024   -1.673568   -1.011384
H      2.290874    1.297249   -1.412470
H      3.193068    2.253102   -0.112572
H      0.023795   -0.964042    1.676007
H     -0.545488   -1.615525    0.120442
H     -0.871497    1.370482    0.775376
H     -1.539112   -0.498383   -1.332569
