38

C     -3.233310    1.233354   -1.094223
C     -3.126147    1.151498    1.330131
C      1.159733   -2.559281   -0.471142
C     -1.368745   -1.350306    0.980776
C     -2.204143   -0.713176   -0.057618
C      0.035342   -0.957492    1.133586
C      0.882227   -0.222730   -1.150367
C      2.151873   -0.322694   -1.966677
C     -2.345930    0.783406    0.059161
C      0.986122   -1.144904    0.028606
C      3.499274    1.592492    0.380556
N      4.367176    0.652899    0.579030
N      3.024952    0.590126   -1.771760
N      2.766000    1.597596   -0.844868
O      3.295151    2.570529    1.349124
H     -3.943031    0.391904   -1.339767
H     -3.837460    2.114305   -0.836463
H     -2.627949    1.436536   -1.995636
H     -2.601279    0.743677    2.196454
H     -4.132332    0.657894    1.240584
H     -3.236407    2.242440    1.346725
H      1.995604   -2.517434   -1.223276
H      1.501971   -3.244004    0.315807
H      0.282013   -2.928288   -1.036596
H     -1.949225   -1.283444    1.956479
H     -1.413501   -2.464146    0.769540
H     -3.270373   -1.094908    0.145144
H     -2.036307   -1.026832   -1.098518
H      0.432515   -1.525873    2.037392
H      0.133948    0.118767    1.493688
H      0.071481   -0.489299   -1.849152
H      0.743449    0.821635   -0.805235
H      2.322941   -1.115001   -2.677111
H     -1.422447    1.349794    0.012594
H      2.047792   -0.914767    0.448873
H      4.918851    0.615418    1.455846
H      2.061264    2.363550   -0.994787
H      4.068904    2.846759    1.953102
