21

C     -2.965575    0.407524    0.410911
C      0.575376   -0.976798   -0.079483
C     -0.845255   -0.589614   -0.277626
C      1.452783    0.225431    0.155230
C     -1.509567    0.133373    0.838485
C      2.890500   -0.214091    0.326318
O     -0.976938    1.433877    1.005770
O      3.152918   -1.438987    0.256077
O      3.918530    0.663912    0.554337
H     -2.908265    0.649228   -0.675228
H     -3.343856    1.325054    0.910112
H     -3.593389   -0.468198    0.608688
H      1.003442   -1.470579   -1.001653
H      0.720514   -1.725771    0.728653
H     -0.957200    0.008462   -1.226188
H     -1.402867   -1.547892   -0.506661
H      1.409867    0.858480   -0.747733
H      1.178845    0.759868    1.093357
H     -1.455728   -0.380547    1.808278
H     -1.245418    1.927053    0.170369
H      4.901282    0.420214    0.506251
