30

C     -2.168888   -0.447889   -0.290834
C     -0.724590    1.151998   -1.571439
C      0.590881   -1.488210   -1.054626
C     -0.827056    0.121287    1.983725
C     -0.053680   -1.040971    1.340718
C      0.598815    1.700398    0.808303
C     -0.820834    1.197306    0.938563
C      1.319441    0.558198    0.178438
C     -0.915420    0.340498   -0.335555
C      0.327318   -0.506851   -0.008729
N      3.166539   -0.568382   -0.716066
N      2.548969    0.525092   -0.130455
H     -2.038022   -1.532221   -0.141128
H     -2.859959   -0.057904    0.495798
H     -2.719191   -0.264711   -1.259915
H     -1.121445    2.170494   -1.408865
H      0.318591    1.150497   -1.960357
H     -1.371425    0.692256   -2.373464
H     -0.390620   -1.855123   -1.471661
H      1.116888   -2.392824   -0.702409
H      1.145427   -1.046894   -1.882610
H     -0.318456    0.493542    2.889157
H     -1.838198   -0.236316    2.252535
H     -0.644938   -1.959109    1.314118
H      0.821438   -1.232380    1.993868
H      0.649856    2.621324    0.182993
H      0.974342    1.912566    1.838324
H     -1.578417    1.947408    1.012503
H      3.323481   -1.464039   -0.223963
H      3.489154   -0.489040   -1.696968
