17

C     -0.428127   -1.007111   -0.514291
C     -1.713061   -0.312509   -0.158727
C      1.815307    0.076570   -0.560915
C      0.580385   -0.187329    0.303405
C     -1.323889    1.057407    0.225461
N     -0.081514    1.084811    0.466888
O      2.509029   -1.098927   -0.765043
O     -2.151614    2.184283    0.324159
H     -0.402308   -2.054443   -0.173215
H     -0.225580   -0.925664   -1.600232
H     -2.426467   -0.322669   -1.017838
H     -2.219118   -0.782923    0.710702
H      2.462123    0.841278   -0.116342
H      1.476353    0.467920   -1.540056
H      0.821170   -0.700083    1.230895
H      3.241253   -1.247709   -0.102448
H     -1.933942    2.927097    0.979503
