30

C     -1.641938    1.289408    0.786768
C     -0.742070    1.162810   -1.516780
C     -1.214509   -1.362560    1.146046
C      0.084525   -0.679425    1.594591
C     -0.374690   -1.589314   -1.124432
C      1.489112    1.112401    0.513791
C     -1.422816   -0.918624   -0.292791
C     -0.853769    0.506007   -0.189367
C      0.509292    0.059905    0.358223
C      0.890834   -0.944177   -0.663767
N      2.098973   -0.917993   -1.141968
O      4.043872    0.199963    0.308730
O      3.111646    1.432921   -1.647949
O      1.883131   -1.872455   -0.204354
S      2.853983    0.528313   -0.505437
H     -1.194051    1.454659    1.761272
H     -1.886561    2.308669    0.372045
H     -2.629550    0.777708    0.949773
H      0.172145    0.933891   -2.074656
H     -0.739865    2.276989   -1.347238
H     -1.665071    0.981168   -2.135847
H     -2.058241   -0.995401    1.780870
H     -1.114038   -2.448197    1.165563
H      0.857546   -1.477572    1.778208
H     -0.044361   -0.068638    2.479931
H     -0.550046   -1.535374   -2.203314
H     -0.400666   -2.687109   -0.863523
H      1.830027    1.370707    1.518239
H      1.135717    2.062200    0.040771
H     -2.428562   -0.960880   -0.643397
