21

C     -1.979495    0.719371    0.681184
C      0.642223    0.440027   -0.781973
C     -0.651143   -0.140297   -1.264495
C      1.373089   -0.505518    0.150976
C     -1.596096   -0.493397   -0.168300
C      2.635195    0.142172    0.569655
O     -2.783761   -0.939310   -0.752116
O      3.415416    0.590516   -0.318372
O      2.958331    0.255690    1.895192
H     -2.695700    0.370804    1.458698
H     -1.113305    1.210314    1.132716
H     -2.536647    1.462708    0.078653
H      0.544429    1.428456   -0.284151
H      1.298976    0.601899   -1.658035
H     -0.431851   -1.012826   -1.883711
H     -1.142246    0.644412   -1.898514
H      1.685061   -1.408265   -0.439313
H      0.780539   -0.822131    1.015076
H     -1.193462   -1.241564    0.537017
H     -3.115879   -1.746043   -0.285814
H      3.906323    0.442980    2.215626
