17

C     -0.246443   -0.931769   -0.792664
C     -1.290886   -0.796803    0.288554
C      1.628681   -0.020142    0.494117
C      0.585096    0.318749   -0.521186
C     -1.456397    0.663510    0.423148
N     -0.417049    1.237266   -0.026732
O      2.334163    1.069297    0.949478
O     -2.607003    1.279315    0.971947
H      0.323777   -1.851686   -0.596102
H     -0.703557   -0.884528   -1.784235
H     -0.896302   -1.216828    1.240631
H     -2.230023   -1.298218   -0.025511
H      1.191022   -0.579956    1.348735
H      2.347402   -0.715486    0.013460
H      1.025058    0.723560   -1.428914
H      3.258286    0.783062    1.164648
H     -2.845826    2.220658    0.648976
