48

C      7.330793    0.143783   -0.004784
C     -5.179733    2.568113    0.599994
C     -5.510008    0.119193    1.203566
C      3.217831   -0.012402   -1.850222
C     -3.081782   -2.465788   -1.206819
C     -2.466355   -0.201542   -2.147133
C      6.368466   -0.300076    0.786805
C      5.233390   -1.070403    0.224209
C     -3.398874    0.875530    0.298710
C      2.463646    1.025878    1.718857
C     -4.625704    1.188874    0.675302
C      3.069543    0.109961   -0.371156
C      3.946642   -0.351086    0.508096
C     -2.921012   -0.502558    0.401028
C      3.482915   -0.057863    1.858007
C      1.934376    0.756647    0.321471
C     -1.521165   -0.896039    0.156904
C     -0.421270    0.072910    0.014911
C     -2.503780   -1.106309   -0.939786
O      3.873806   -0.616858    2.925300
O     -0.554546    1.209027   -0.518009
O      0.888683   -0.189276    0.467310
H      7.287645   -0.060761   -1.088756
H      8.169509    0.708146    0.381628
H     -4.336652    3.280116    0.714987
H     -5.762523    2.743005   -0.331672
H     -5.862343    2.732466    1.453506
H     -5.227033   -0.189000    2.234612
H     -6.569188    0.432185    1.188625
H     -5.461888   -0.781890    0.525524
H      3.772835    0.873579   -2.214680
H      2.196862   -0.081173   -2.279495
H      3.723518   -0.966199   -2.091216
H     -2.965923   -2.787989   -2.254693
H     -2.646534   -3.188651   -0.489576
H     -4.180165   -2.423450   -0.969269
H     -2.403940    0.860767   -1.904490
H     -3.414492   -0.364354   -2.705022
H     -1.626798   -0.475836   -2.799457
H      6.423887   -0.092671    1.843698
H      5.208198   -2.066137    0.755481
H      5.376600   -1.237943   -0.849696
H     -2.791222    1.706217   -0.083378
H      1.665588    0.870323    2.469217
H      2.927901    2.028536    1.795802
H     -3.527054   -1.151116    1.093207
H      1.591452    1.683850   -0.173785
H     -1.194104   -1.848085    0.656335
