59

C     -5.074281   -1.218169   -0.276015
C     -4.060603    0.122124   -2.135537
C      0.315505   -2.273221    0.833818
C     -0.570779   -0.492327   -1.807867
C     -1.661319   -1.195483    1.745691
C      4.790312    1.155004    0.906260
C      7.078313    0.420643    0.835988
C      3.444381    0.916059    0.644400
C     -3.073318   -0.679576    1.502056
C     -1.734567    2.021093   -0.760572
C     -2.622552    3.093794   -0.177219
C      8.004384   -0.532115    0.511299
C      4.042331   -1.228744   -0.256436
C      0.736029    0.380469    0.092562
C     -3.938047   -0.312967   -0.725695
C     -0.896884   -1.459986    0.466264
C      5.723620    0.202796    0.582666
C      3.090681   -0.282986    0.062141
C     -2.965405   -0.037626    0.113860
C     -1.757231    0.749322   -0.034254
C      5.387233   -1.003814   -0.001033
C     -4.037877    2.815859   -0.077000
C      7.575154   -1.717343   -0.073344
C     -0.586928   -0.208366   -0.325257
O     -4.924613    3.015958   -0.949317
O     -4.527915    2.255299    1.122244
O      8.438503   -2.607332   -0.376797
O      1.767155   -0.524159   -0.198181
O      6.299710   -1.902790   -0.302953
H     -4.745285   -2.226767   -0.044617
H     -5.902635   -1.171080   -1.006141
H     -5.458354   -0.749534    0.658981
H     -5.166560    0.143371   -2.402612
H     -3.709280    1.109755   -2.382755
H     -3.658554   -0.675791   -2.809955
H     -0.073920   -3.174772    1.401326
H      0.925703   -1.738578    1.584197
H      0.880574   -2.655063   -0.037582
H      0.403050   -1.028412   -2.007994
H     -1.434943   -1.136130   -2.045278
H     -0.526639    0.425920   -2.394086
H     -1.080000   -0.455286    2.327155
H     -1.687189   -2.159405    2.294280
H      5.092917    2.086790    1.361954
H      7.365410    1.349517    1.288621
H      2.694623    1.665055    0.897163
H     -3.820675   -1.450631    1.557443
H     -3.269826    0.096625    2.259860
H     -0.676077    2.458269   -0.540426
H     -1.708670    1.994206   -1.862786
H     -2.215712    3.352339    0.837548
H     -2.515592    4.057714   -0.746366
H      9.062806   -0.388374    0.697179
H      3.749084   -2.164820   -0.712920
H      0.958208    1.299762   -0.490306
H      0.738339    0.690156    1.156711
H     -1.505974   -2.109052   -0.227790
H     -1.469532    1.076231    1.053488
H     -5.506290    2.006568    1.230809
