12

C      0.403623    0.360466   -0.475720
C     -1.749703   -0.003913    0.276423
C      1.610540   -0.308935    0.154542
F      0.835738    1.611462   -0.904033
F     -2.024438   -0.950599    1.246392
F     -2.735899    0.956512    0.256476
F      1.273331   -1.567048    0.612513
F      2.099402    0.507221    1.150347
F      2.565975   -0.414979   -0.853286
O     -0.517618    0.578913    0.535866
H     -0.002214   -0.236973   -1.308321
H     -1.758736   -0.532126   -0.691199
