29

C      2.819806   -2.661151    0.698347
C      0.379730   -2.192660    1.408702
C     -1.877806    2.384178    0.766651
C     -1.498772    1.843541   -1.595436
C     -1.057588    0.632300   -2.369651
C      1.402280   -1.023689   -0.487804
C      0.023061    0.896452    0.185371
C      1.525566   -1.917930    0.496491
C     -0.825581    2.011599   -0.283446
C      0.166634   -0.271073   -0.730352
O      0.238259    0.238635   -2.047842
H      2.694147   -3.737203    0.438303
H      3.067331   -2.610144    1.764902
H      3.648827   -2.203517    0.145865
H     -0.587949   -2.247439    0.908339
H      0.573687   -3.187066    1.910197
H      0.431624   -1.452380    2.221184
H     -1.398733    2.801096    1.676176
H     -2.508218    1.519097    1.027789
H     -2.548910    3.180122    0.384301
H     -2.600166    1.788972   -1.485612
H     -1.311721    2.727825   -2.275844
H     -1.713508   -0.247024   -2.188255
H     -1.076864    0.827522   -3.461602
H      2.267184   -0.866074   -1.118290
H     -0.397138    0.519334    1.161437
H      1.071166    1.223923    0.453228
H     -0.167878    2.928890   -0.349041
H     -0.738470   -0.906141   -0.611122
