38

C     -4.021310   -0.273612   -1.855122
C     -4.279575   -0.083459    0.585336
C      3.422345    1.473931    0.540117
C      4.648558   -0.715389    0.635767
C     -1.824514    1.350091    0.363536
C     -1.524291   -0.100818    0.646677
C      0.591177    0.207352   -0.663702
C     -0.029017   -0.282503    0.615840
C      1.662644   -0.820962   -0.927897
C      1.706827   -1.545944    0.425411
C     -3.301348    0.040231   -0.567135
C      3.312359   -0.025151    0.347174
O     -0.319609    0.267149   -1.709148
O     -2.822883    1.346309   -0.579699
O      0.352282   -1.619369    0.722511
O     -2.177710   -0.752744   -0.369256
O      2.935999   -0.261575   -0.954184
O      2.376666   -0.596107    1.185974
H     -5.106379   -0.077170   -1.688894
H     -3.880823   -1.300884   -2.198938
H     -3.678325    0.468909   -2.629011
H     -5.112898    0.639080    0.356982
H     -4.745405   -1.081280    0.636497
H     -3.841404    0.246357    1.539544
H      2.692854    1.879023    1.240456
H      3.289053    2.025531   -0.435522
H      4.466089    1.692599    0.866598
H      5.404037    0.079054    0.737910
H      4.616098   -1.271543    1.586085
H      4.890832   -1.439707   -0.172446
H     -2.054587    1.901385    1.279440
H     -0.925717    1.851583   -0.101045
H     -1.877903   -0.422674    1.645278
H      1.030881    1.205233   -0.451128
H      0.396130    0.235915    1.499693
H      1.448389   -1.494267   -1.753883
H      2.208092   -2.507151    0.367101
H      0.072387   -0.237418   -2.463983
