40

C     -2.455964   -2.561101    0.085975
C     -0.047489   -2.717173    0.251573
C     -1.368206    3.558933   -1.114120
C      4.123564    0.114785   -1.223709
C     -2.488685    1.472644   -0.601660
C     -2.432940    0.212309    0.194479
C     -0.077064    1.806652    0.042960
C     -1.210248   -1.817251    0.569310
C     -1.403062    2.395700   -0.120117
C      3.561438   -0.997989   -0.351523
C     -1.117378   -0.475528   -0.175402
C      0.044212    0.321848    0.261042
C      2.316813   -0.544520    0.340336
O      4.524072   -1.391497    0.545930
O      2.309191   -0.578935    1.590685
O      1.224694   -0.106770   -0.387317
H     -2.274739   -3.632085    0.284188
H     -3.347463   -2.291309    0.689569
H     -2.638510   -2.331413   -0.963056
H      0.628252   -2.691475    1.143440
H     -0.429310   -3.754707    0.094056
H      0.410742   -2.395529   -0.684172
H     -2.296765    3.615783   -1.711115
H     -0.550904    3.317041   -1.850691
H     -1.144053    4.518051   -0.616673
H      4.244096   -0.223797   -2.262822
H      3.410163    0.967405   -1.180674
H      5.098684    0.489035   -0.833098
H     -2.431605    1.295713   -1.698251
H     -3.475621    1.951227   -0.424380
H     -2.413198    0.447352    1.256626
H     -3.267146   -0.431582   -0.133449
H      0.527839    2.071330   -0.876300
H      0.467888    2.308909    0.870999
H     -1.284892   -1.612909    1.636946
H     -1.784206    2.856406    0.833869
H      3.278499   -1.856417   -0.994972
H     -1.103968   -0.727964   -1.251853
H      0.212086    0.142827    1.351756
H      4.661182   -0.723997    1.265539
