42

C      3.615543    1.319581   -0.505797
C     -2.762633   -2.251163   -0.454530
C     -1.848894    2.504446    0.282585
C     -1.470251   -2.623682    0.173564
C     -0.496780    2.175922   -0.362377
C      2.145094    1.348864   -0.861844
C      4.020948    0.113141    0.292307
C     -3.210525   -0.933916    0.086570
C     -2.692678    1.294618    0.468971
C      0.822113   -1.870913   -0.056010
C     -0.549455   -1.465746    0.441821
C     -0.040107    0.901072    0.312983
C      1.393123    0.617736    0.221178
C      3.132102   -1.064442   -0.008933
C     -0.930079   -0.201180   -0.255036
N     -2.292021    0.135410   -0.257084
N      1.733677   -0.786838    0.051820
O      3.599651   -2.197573   -0.290355
H      4.263247    1.450567   -1.395729
H      3.794095    2.219081    0.149227
H     -2.704199   -2.183129   -1.561228
H     -3.558971   -2.999773   -0.202488
H     -2.347411    3.348584   -0.224925
H     -1.580456    2.883270    1.311831
H     -1.703190   -3.087290    1.176294
H     -0.999773   -3.418796   -0.425860
H      0.149297    3.044918   -0.123456
H     -0.687122    2.042769   -1.431854
H      1.860026    2.384937   -1.005481
H      2.049599    0.792574   -1.826105
H      3.911838    0.276918    1.398358
H      5.071262   -0.131629    0.110238
H     -3.274540   -0.995943    1.211301
H     -4.225364   -0.679845   -0.278021
H     -2.827350    1.001055    1.537395
H     -3.727238    1.562133    0.117686
H      0.693273   -2.142384   -1.130760
H      1.206602   -2.742287    0.510280
H     -0.489382   -1.223235    1.543148
H     -0.346015    0.974868    1.398964
H      1.894641    0.918640    1.189542
H     -0.591699   -0.311340   -1.328194
