50

C      5.045807    0.072037   -1.633266
C      5.352974    0.877892    0.715387
C     -1.156606   -1.135503    1.949689
C     -3.888756   -0.299877    1.066423
C     -2.390785   -1.496242   -1.498711
C      2.705622   -1.441022    0.394778
C      0.255184    1.897858   -0.483960
C      1.351820   -1.556386    0.544672
C     -1.069473    1.254506   -0.962097
C     -1.523180   -1.817176   -0.352565
C     -3.379693   -0.386280   -1.347489
C      2.424657    0.800428   -0.290296
C      4.732623   -0.179251   -0.173212
C      3.279519   -0.264082   -0.025145
C      1.065775    0.666596   -0.134396
C      0.467504   -0.493264    0.283237
C     -1.693277    0.575467    0.209842
C     -3.776692    1.752282   -0.138842
C     -0.990558   -0.712232    0.485218
C     -3.164123    0.411201   -0.068552
O     -3.098795    2.771151    0.117810
O     -5.107380    1.942623   -0.484574
H      5.948166    0.725487   -1.685092
H      5.293847   -0.869982   -2.138422
H      4.169662    0.538951   -2.110570
H      5.990187    1.528423    0.071890
H      6.025537    0.421140    1.470438
H      4.596647    1.454856    1.271347
H     -1.982475   -1.862227    2.082875
H     -0.238835   -1.695090    2.208123
H     -1.228579   -0.244202    2.607481
H     -3.541943   -0.038695    2.056853
H     -3.965451   -1.383053    0.842709
H     -4.961793    0.057094    1.020509
H     -1.858473   -1.408052   -2.487462
H     -3.020010   -2.428089   -1.679227
H      3.347911   -2.288313    0.608640
H      0.724615    2.458339   -1.288143
H      0.009278    2.451267    0.424250
H      0.982127   -2.525263    0.873691
H     -1.631893    2.020326   -1.469407
H     -0.715710    0.544084   -1.747609
H     -0.624406   -2.376816   -0.773347
H     -1.976933   -2.594984    0.318487
H     -4.437896   -0.705970   -1.446207
H     -3.215808    0.332748   -2.177914
H      2.854793    1.715482   -0.615576
H      5.183468   -1.153154    0.094124
H     -1.603903    1.237512    1.108060
H     -5.564298    2.847453   -0.484903
