50

C     -4.950927    0.946634   -1.952266
C     -5.194039   -0.871387   -0.214142
C      5.688654    0.855464    3.325530
C      5.040458    0.195309   -2.061895
C      0.528359    0.494086    2.556890
C     -0.701144   -0.078674    1.945015
C     -3.394202   -0.971143   -2.000226
C      2.970840    0.587524    2.240102
C      2.660627    0.257431   -0.469094
C      0.146616   -1.061757   -1.197975
C     -2.132624   -0.274095    0.035678
C     -4.747399   -0.509817   -1.579994
C      1.705553    0.455641    1.669239
C     -2.224879   -0.229017   -1.432439
C      1.531221    0.291154    0.326728
C      0.221651    0.154377   -0.296054
C     -1.006481   -0.824983   -2.104052
C      4.102268    0.555197    1.454302
C      3.918389    0.387501    0.091269
N     -0.876919    0.133085    0.579896
O     -1.037355   -1.064273   -3.284225
O      5.341751    0.683033    2.000758
O      5.077256    0.358775   -0.673015
H     -4.288275    1.208026   -2.801037
H     -6.016184    1.139295   -2.207986
H     -4.660248    1.599595   -1.090874
H     -4.622454   -1.721282    0.204724
H     -5.179441   -0.017769    0.502957
H     -6.284348   -1.173181   -0.259153
H      4.917692    0.576617    4.065745
H      6.658097    0.393164    3.612965
H      5.851974    1.963965    3.481908
H      4.327229   -0.632294   -2.316449
H      4.777948    1.110391   -2.606682
H      6.051954   -0.103236   -2.422879
H      0.326874    1.546609    2.838573
H      0.789489   -0.076497    3.486099
H     -0.678504   -1.190536    2.146808
H     -1.606571    0.287178    2.496209
H     -3.395176   -0.922162   -3.135092
H     -3.322794   -2.076523   -1.779115
H      3.034231    0.715707    3.312473
H      2.601177    0.129305   -1.550044
H     -0.119897   -1.927578   -0.544645
H      1.088045   -1.228898   -1.752103
H     -2.889454    0.408639    0.470831
H     -2.336889   -1.287366    0.446528
H     -5.459679   -1.064629   -2.299871
H     -2.327179    0.829661   -1.787341
H      0.094708    1.043733   -0.984476
