44

C      2.222337   -1.346978   -0.918789
C     -1.888851   -1.492213    1.033467
C     -4.308291    1.412076   -0.857089
C     -0.429530   -1.402602    0.637249
C     -2.942427    1.589566   -0.857836
C      2.283663   -0.476059    1.779142
C      3.677696   -0.009653    1.340213
C      0.029510    0.599890   -1.592055
C      1.496671    0.940997   -1.496567
C     -4.041711   -0.594875    0.342225
C     -2.651859   -0.413288    0.340902
C     -4.882572    0.314071   -0.255536
C     -2.074685    0.680020   -0.257698
C     -0.624767    0.870550   -0.260465
C     -0.017846    0.022818    0.837232
C      1.431457    0.278371    0.838663
C      3.533115    0.506609   -0.077350
C      2.120249    0.061439   -0.481037
O     -6.272993    0.127491   -0.251335
O      4.491470   -0.114009   -0.872443
H      3.251035   -1.607398   -1.310545
H      1.560679   -1.493650   -1.821536
H      1.979254   -2.111978   -0.188984
H     -2.303405   -2.491920    0.739193
H     -1.953879   -1.361880    2.148742
H     -4.955376    2.143555   -1.335886
H      0.119903   -2.076805    1.324822
H     -0.376465   -1.722833   -0.424590
H     -2.460152    2.447122   -1.325091
H      2.190627   -1.559419    1.761984
H      2.104518   -0.162280    2.846093
H      3.917710    0.882004    1.986401
H      4.424456   -0.808024    1.428405
H     -0.415525    1.319054   -2.316285
H     -0.152622   -0.400291   -1.980820
H      1.949613    0.710829   -2.492913
H      1.626951    2.016623   -1.319149
H     -4.505012   -1.451889    0.810608
H     -0.341613    1.933262    0.000737
H     -0.452454    0.372253    1.787149
H      1.570850    1.374947    1.075022
H      3.578279    1.594865   -0.146593
H     -6.848288    0.505881    0.512492
H      5.340279    0.393752   -0.730149
