48

C     -1.908541   -4.387263    1.101233
C      5.806560   -1.730697    0.654410
C     -2.713499    4.214809   -1.333887
C     -1.783733    5.180663   -1.097580
C     -2.527164    2.954418   -0.805187
C     -0.647661    4.892846   -0.323100
C      3.724807    0.640622    0.931460
C      2.982802    1.767016    1.121489
C     -1.929672   -2.892521   -0.770719
C     -1.983654   -2.040894    1.472961
C     -1.787085   -1.393802   -0.901594
C     -0.575306   -1.638526    1.091491
C     -1.391649    1.219029    0.456406
C      1.807172   -0.455015    0.069994
C     -1.439478    2.628085   -0.046808
C      3.131292   -0.480395    0.400714
C      1.004284    0.679910    0.248193
C     -0.376542    0.400657   -0.202552
C     -0.498605    3.642144    0.179903
C      1.639039    1.776771    0.780375
N     -2.395984   -3.133502    0.586578
N     -0.587871   -1.015802   -0.182315
S      4.103281   -1.962034    0.147285
S      0.991530    3.415635    1.136175
H     -2.742625   -5.139153    1.151755
H     -1.504183   -4.294858    2.111908
H     -1.136442   -4.838896    0.444799
H      6.289587   -2.682202    0.960506
H      5.885070   -1.023273    1.482573
H      6.405229   -1.329771   -0.188574
H     -3.606159    4.389646   -1.925406
H     -1.886759    6.181072   -1.490643
H     -3.274804    2.187460   -0.998959
H      0.085534    5.654426   -0.136419
H      4.757513    0.648490    1.198485
H      3.441226    2.655691    1.539087
H     -0.972653   -3.413494   -0.964728
H     -2.686045   -3.285039   -1.483239
H     -2.711979   -1.232798    1.463908
H     -1.999327   -2.484673    2.498706
H     -1.679082   -1.142990   -1.991105
H     -2.700957   -0.912305   -0.540699
H     -0.038718   -2.630011    0.984897
H     -0.046118   -1.106111    1.891415
H     -1.111336    1.325875    1.546870
H     -2.428565    0.861550    0.402444
H      1.393912   -1.357477   -0.353822
H     -0.376639    0.686688   -1.301542
