30

C     -1.905271    0.540222    1.888250
C     -2.161457   -1.358752   -0.392240
C     -2.540385    0.870936   -0.975467
C      3.526892    0.266387   -1.717990
C      2.693983   -0.810364   -1.766084
C      3.320871    1.209974   -0.729290
C      1.672996   -0.943869   -0.842224
C      2.302199    1.069286    0.184526
C     -0.927122    0.439810    0.706418
C      1.439280   -0.021864    0.155325
C      0.333000   -0.166651    1.149767
N     -1.604663   -0.072756   -0.399583
O      0.323322   -1.480394    1.532680
H     -2.496203    1.450392    1.848166
H     -2.498763   -0.397045    1.897555
H     -1.344912    0.548689    2.854169
H     -2.073412   -1.920594    0.574523
H     -3.284129   -1.285050   -0.535748
H     -1.850928   -2.008795   -1.256328
H     -2.062095    1.790189   -1.317176
H     -3.399976    1.055465   -0.288389
H     -2.973339    0.375142   -1.877258
H      4.331282    0.375248   -2.444342
H      2.841718   -1.558458   -2.529946
H      3.989642    2.057298   -0.712107
H      1.036123   -1.814533   -0.919113
H      2.157905    1.820376    0.952379
H     -0.692005    1.525272    0.481741
H      0.698345    0.412664    2.049711
H      1.147104   -1.968224    1.290154
