23

C      2.915115    0.518255   -0.002692
C      2.768652   -0.822868    0.290880
C     -1.964181    0.950419   -0.051316
C      1.778871    1.250768   -0.225927
C     -0.643754    1.578385   -0.425163
C      1.528670   -1.403506    0.357158
C     -1.943936   -0.465401   -0.608608
C      0.509869    0.692534   -0.166190
C      0.380206   -0.640830    0.126532
C     -0.954526   -1.273287    0.200204
O     -1.347595   -1.263502    1.539296
H      3.874899    0.993049   -0.059673
H      3.659583   -1.397956    0.466071
H     -2.079609    0.889889    1.055328
H     -2.767090    1.518089   -0.535889
H      1.887097    2.289971   -0.453675
H     -0.540284    2.507149    0.199093
H     -0.704082    1.869540   -1.504215
H      1.395518   -2.437614    0.582479
H     -2.931173   -0.963106   -0.498938
H     -1.615223   -0.451298   -1.667752
H     -0.925516   -2.309147   -0.212861
H     -2.281512   -1.629534    1.595858
