29

C      2.539940   -0.991483   -1.306246
C      3.279071    0.702180    0.240020
C     -3.231288    0.237329    1.082457
C     -1.187491    1.254507    0.220767
C      0.319106    1.266439    0.315762
C     -1.408348   -1.202265    0.299490
C      2.195828   -0.197667   -0.320112
C     -1.712881    0.101424    1.013856
C      0.846682   -0.139070    0.250036
C     -0.070917   -1.089840   -0.443257
O     -0.290497   -0.759871   -1.783238
H      3.552748   -1.005922   -1.705526
H      1.832291   -1.669145   -1.765698
H      3.826281    1.167586   -0.596835
H      3.934946    0.096622    0.885841
H      2.800345    1.494286    0.854489
H     -3.537725    1.017019    1.819610
H     -3.621680   -0.771804    1.379424
H     -3.631173    0.479689    0.069290
H     -1.630977    2.202668    0.568463
H     -1.456550    1.141623   -0.850263
H      0.713410    1.845259   -0.543133
H      0.606768    1.781962    1.269215
H     -1.306910   -1.984348    1.073536
H     -2.181073   -1.469356   -0.445901
H     -1.290288    0.125902    2.028114
H      0.930149   -0.508120    1.311578
H      0.374988   -2.101007   -0.422286
H     -1.194754   -1.024596   -2.089813
