15

C      1.459347    0.836962    0.334010
C     -0.183605   -1.060098    0.425191
C     -1.419913   -0.210864    0.276811
C      0.829401   -0.319344   -0.383422
C     -1.160370    0.531247   -0.990385
O     -1.904072    1.390379   -1.547522
O      0.064540    0.139114   -1.507662
H      1.332596    0.804340    1.428664
H      1.071754    1.828979   -0.003979
H      2.562622    0.779048    0.151041
H     -0.384546   -2.031061   -0.104983
H      0.097972   -1.249941    1.459121
H     -1.612302    0.449543    1.130922
H     -2.318307   -0.836837    0.108969
H      1.564882   -1.051468   -0.776774
