36

C     -0.040406   -2.216018    1.901054
C      0.653611    0.104922   -2.489079
C     -2.515861   -0.687195    2.393399
C      1.906625    2.430117   -1.518001
C     -2.282719   -1.444536    1.120177
C      2.475304    1.067902   -1.217480
C     -0.717015   -2.403916   -0.378250
C      1.998029   -1.238948   -0.909304
C     -3.961872   -0.633893    2.706359
C      3.037300    3.384118   -1.614728
C     -0.791379   -1.510129    0.774902
C      1.325843    0.044639   -1.108219
N     -0.643267   -3.133556   -1.295280
N      2.543651   -2.256788   -0.733924
N     -0.303732   -0.231338    0.551519
N      0.435888    0.382879   -0.090110
O     -4.801421   -1.194232    1.930109
O     -4.458448    0.005939    3.820559
O      4.243516    3.046262   -1.461640
O      2.756855    4.718614   -1.887687
H     -0.097933   -1.675299    2.847541
H     -0.417141   -3.255245    1.937408
H      1.017673   -2.263943    1.601825
H     -0.088988    0.914658   -2.527070
H      1.427484    0.336766   -3.249439
H      0.155043   -0.850732   -2.654906
H     -2.157750    0.376294    2.308900
H     -2.013308   -1.124424    3.259221
H      1.165447    2.762884   -0.767106
H      1.403551    2.342035   -2.520868
H     -2.795758   -0.951247    0.277101
H     -2.678470   -2.466148    1.256260
H      3.068895    0.749911   -2.093861
H      3.120216    1.041780   -0.337364
H     -5.399857    0.404339    3.874133
H      3.430396    5.423529   -1.583507
