36

C      2.776655   -1.017691   -2.043333
C     -1.973570   -0.851350   -1.969311
C      1.774783    1.119593    0.912057
C     -2.489914    0.694246    0.540401
C      2.567709    0.101683    0.113099
C     -2.314896   -0.794793    0.512916
C      2.251129    1.301508   -1.938673
C     -1.544619   -2.760040   -0.639845
C      2.338803    1.256356    2.270660
C     -3.334736    1.137069    1.660967
C      1.958566    0.010571   -1.262719
C     -1.463597   -1.252991   -0.600284
N      2.493507    2.300791   -2.470996
N     -1.623457   -3.907030   -0.676702
N      0.586944   -0.291122   -1.275550
N     -0.076694   -0.983306   -0.533106
O      1.812466    2.114203    3.044894
O      3.399436    0.514342    2.758022
O     -2.955420    0.791390    2.834782
O     -4.488872    1.884617    1.590671
H      3.007258   -1.906467   -1.418057
H      3.757459   -0.536642   -2.264611
H      2.257547   -1.282563   -2.983350
H     -2.909993   -1.328441   -2.247514
H     -2.054905    0.250650   -1.992819
H     -1.196274   -1.237901   -2.692721
H      0.723801    0.753586    0.984494
H      1.803301    2.094346    0.407088
H     -1.528410    1.200008    0.531852
H     -3.101543    0.940502   -0.383432
H      3.605829    0.520549   -0.021615
H      2.618087   -0.871100    0.644032
H     -3.344551   -1.238938    0.438014
H     -1.910040   -1.190767    1.479961
H      3.880303    0.760299    3.616386
H     -5.302092    1.704831    2.201733
