20

C      2.513586    0.267508   -0.563069
C     -1.539767    0.899237    1.032476
C     -2.149798   -0.404712   -0.773316
C      0.115617   -0.038931   -0.462222
C      1.336597    0.062158    0.393463
N     -1.116857   -0.230267    0.255506
O      1.560060   -1.072209    1.161368
H      2.482269   -0.613573   -1.236735
H      3.462387    0.353191   -0.042371
H      2.238207    1.156220   -1.184374
H     -2.602220    0.694979    1.341796
H     -0.988894    1.042493    1.969951
H     -1.593137    1.810140    0.398732
H     -2.247562    0.614568   -1.249972
H     -1.714689   -1.041104   -1.571633
H     -3.104923   -0.750438   -0.393882
H      0.073660    0.877049   -1.099255
H      0.199812   -0.933490   -1.150465
H      1.294861    0.919688    1.062562
H      1.780792   -0.854122    2.111441
