20

C      2.498077    0.033698    0.798869
C     -2.036229   -1.116325   -0.570218
C     -1.708184    1.059766    0.127121
C      0.143302   -0.468615    0.081426
C      1.267973    0.515114    0.050067
N     -1.049199   -0.014884   -0.610450
O      1.673101    0.795138   -1.276321
H      2.315787    0.226737    1.882539
H      3.361587    0.660085    0.456967
H      2.750958   -1.003488    0.572198
H     -2.122118   -1.448331    0.482667
H     -2.985581   -0.681839   -0.962418
H     -1.623671   -1.905155   -1.216823
H     -2.421310    0.647106    0.896801
H     -2.389419    1.552918   -0.628624
H     -1.040326    1.830798    0.502460
H     -0.040157   -0.780011    1.123936
H      0.494337   -1.396878   -0.457518
H      0.931368    1.482887    0.501019
H      1.979705    0.011280   -1.753699
