23

C      2.339612    1.628342    0.191547
C     -3.221825    0.109387   -0.737333
C     -2.811698   -0.494112    0.429662
C     -2.327230    0.405606   -1.742180
C     -1.479055   -0.805120    0.589017
C     -1.004646    0.078035   -1.542399
C      1.187526   -2.253699   -0.531311
C      2.081551    0.611380    1.220878
C     -0.543501   -0.528067   -0.389779
C      0.883402   -0.841619   -0.264848
N      1.409756   -3.381472   -0.740479
N      1.436087   -0.486720    1.024894
O      2.562071    0.835851    2.503367
H      2.480873    2.610519    0.666978
H      1.511215    1.739591   -0.533946
H      3.288735    1.341458   -0.335987
H     -4.261822    0.361857   -0.883160
H     -3.542377   -0.718204    1.211095
H     -2.658025    0.879370   -2.654819
H     -1.112218   -1.280825    1.491710
H     -0.289117    0.314630   -2.345375
H      1.441360   -0.242179   -1.012858
H      2.629326    0.115989    3.199361
