31

C      3.415071    1.576740   -0.059447
C      3.966761   -0.613758    0.823741
C     -1.512875    0.982439    0.974561
C      0.851781    0.942559   -0.836542
C      1.686114   -0.113853   -0.194932
C     -0.504071    0.387051   -1.190069
C     -2.618278   -0.693225   -0.465920
C     -3.420711   -1.259177    0.673596
C      3.034587    0.336800    0.177787
C     -1.284249   -0.124102   -0.015562
O     -4.618217   -1.751752    0.121763
H      4.410638    1.900795    0.218369
H      2.781209    2.322316   -0.529189
H      3.737082   -1.677032    0.576534
H      5.017579   -0.452286    0.539883
H      3.818544   -0.525695    1.937493
H     -2.004686    1.839750    0.462941
H     -0.538605    1.330102    1.383352
H     -2.132260    0.666383    1.832103
H      1.331459    1.389115   -1.737099
H      0.738516    1.789480   -0.122379
H      1.792706   -0.999489   -0.869429
H      1.185029   -0.461652    0.732703
H     -0.414108   -0.398407   -1.987761
H     -1.096310    1.203072   -1.690398
H     -3.221383    0.128147   -0.912580
H     -2.490859   -1.483526   -1.215089
H     -2.884372   -2.079815    1.188526
H     -3.744920   -0.472327    1.388300
H     -0.737569   -0.964954    0.438303
H     -4.543602   -2.723697    0.014015
