76

C      9.493594    0.766165   -0.674447
C      9.220546   -1.577992   -0.110963
C      9.473626    0.142317    1.695275
C     -6.988187   -1.643634    3.082997
C     -8.054902    2.468245   -2.408920
C     -6.641479   -0.331951    2.894664
C     -6.800316   -2.521161    2.050540
C     -6.979488    2.920362   -1.690065
C     -8.229864    1.109120   -2.545643
C      1.015813    1.231930    0.072822
C     -6.116506    0.101944    1.698873
C     -6.270723   -2.099117    0.833384
C     -6.113909    2.030948   -1.130335
C     -7.330729    0.222215   -1.962057
C      2.503599    1.172381    0.020513
C      5.283926    1.029076   -0.020534
C      5.348994   -0.929917    1.297524
C      6.679302    0.994898   -0.153563
C      6.716928   -0.961586    1.167138
C     -3.131073   -0.788358    0.312149
C     -3.206739    0.752336   -1.555030
C      0.307790    0.043522   -0.494931
C     -1.822171   -0.057455    0.700334
C     -1.821870    0.180863   -1.684096
C      4.599775    0.085033    0.693407
C      7.408482   -0.001724    0.438077
C     -5.922541   -0.771335    0.651212
C     -6.249598    0.665021   -1.239087
C     -3.965083    0.319532   -0.330979
C      3.117594    0.077713    0.811546
C      8.893002   -0.152051    0.332888
C     -5.320283   -0.280679   -0.638787
N     -1.090829    0.058297   -0.484867
O      2.705553   -1.203618    0.475592
O     -5.168592   -1.380259   -1.459467
H      9.815823    1.748557   -0.280290
H     10.455893    0.273619   -1.012974
H      8.884738    0.819864   -1.596738
H      9.522902   -1.615832   -1.172116
H      8.295272   -2.219276   -0.053901
H      9.978792   -2.040941    0.531312
H     10.585787    0.139991    1.643822
H      9.117185   -0.664377    2.375626
H      9.042697    1.091945    2.062839
H     -7.407196   -1.981314    4.034585
H     -8.765329    3.178881   -2.865803
H     -6.807199    0.341524    3.736188
H     -7.068337   -3.554250    2.188784
H     -6.834200    3.993870   -1.581065
H     -9.085216    0.795226   -3.115596
H      0.715726    1.445460    1.126434
H      0.722777    2.100511   -0.597905
H     -5.865360    1.158997    1.632845
H     -6.131712   -2.799905    0.025956
H     -5.284049    2.422633   -0.572438
H     -7.549199   -0.826608   -2.118431
H      2.884258    1.203592   -1.036153
H      2.889821    2.136029    0.472264
H      4.740279    1.847869   -0.512376
H      4.803728   -1.679860    1.873637
H      7.190950    1.755332   -0.727546
H      7.293682   -1.758784    1.644667
H     -2.902320   -1.600530   -0.416096
H     -3.550721   -1.181779    1.229140
H     -3.105405    1.876475   -1.610292
H     -3.756533    0.485735   -2.494807
H      0.657007   -0.136035   -1.541906
H      0.611029   -0.913107    0.050549
H     -2.165301    0.900986    1.170069
H     -1.359007   -0.701401    1.492896
H     -1.272503    0.878363   -2.381626
H     -1.825020   -0.782625   -2.276047
H     -3.980347    1.132505    0.393054
H      2.806288    0.209608    1.885527
H      3.435475   -1.787621    0.158966
H     -5.278797   -1.196782   -2.410223
