35

C     -1.202857    2.091931    1.408576
C      3.655930   -1.630407   -0.965365
C     -3.342733   -1.717369   -0.547717
C      3.186433   -0.470370   -1.535402
C      3.014129   -2.139224    0.140462
C     -2.445328   -1.287273   -1.478173
C     -3.081176   -1.482864    0.788060
C      2.085962    0.217604   -1.044069
C      1.925262   -1.470032    0.637768
C     -1.285695   -0.624189   -1.096651
C     -1.940981   -0.832675    1.134103
C      0.149400    1.802579    0.706530
C      1.442162   -0.279858    0.053884
C     -1.000025   -0.376787    0.234176
C      0.082566    2.579931   -0.511811
C      0.259863    0.338530    0.657950
O      0.914402    3.536193   -0.661942
O     -0.819414    2.367101   -1.529056
O      0.352840   -0.015260    2.053436
H     -1.962578    1.636153    0.738050
H     -1.375255    3.194439    1.362727
H     -1.244497    1.670730    2.407762
H      4.529629   -2.122529   -1.406203
H     -4.261797   -2.240013   -0.801376
H      3.659772   -0.019640   -2.417514
H      3.356558   -3.052050    0.614500
H     -2.662994   -1.478916   -2.521321
H     -3.771019   -1.808991    1.573550
H      1.731377    1.113638   -1.503983
H      1.417539   -1.879842    1.516598
H     -0.627188   -0.322382   -1.872295
H     -1.755562   -0.659846    2.187534
H      0.897998    2.184486    1.439057
H     -1.198238    3.139720   -2.060378
H      1.315515    0.037484    2.298537
