38

C     -3.270778    2.573083    0.119922
C     -3.530880    1.697546   -1.062479
C     -2.263574   -3.859123    0.921634
C      5.445738    1.328295    0.744262
C     -2.619172   -3.478291   -0.335584
C     -1.298967   -3.150248    1.585270
C      4.984115    0.495637   -0.261990
C      4.506298    1.907727    1.581578
C     -1.995817   -2.383505   -0.910185
C     -0.659814   -2.049223    1.029650
C      3.636493    0.242561   -0.436547
C      3.144187    1.675362    1.434875
C     -1.006486   -1.648391   -0.241514
C      2.739650    0.842435    0.422074
C     -0.418238   -0.523233   -0.977936
C      1.300528    0.564566    0.223090
C     -1.296593    0.657537   -1.022282
N      0.930603   -0.209100   -0.722620
O      0.402342    1.168572    1.089344
O     -0.867056    1.843252   -1.065741
O     -2.695246    0.552904   -1.019519
H     -3.121084    3.612730   -0.247700
H     -2.363576    2.245777    0.695566
H     -4.182222    2.533238    0.779539
H     -3.349627    2.199037   -2.035932
H     -4.584115    1.291041   -1.061935
H     -2.733607   -4.719292    1.409945
H      6.504460    1.504321    0.852476
H     -3.380183   -4.035093   -0.863409
H     -1.012879   -3.446972    2.581402
H      5.680444    0.024414   -0.935589
H      4.837457    2.568840    2.384353
H     -2.316795   -2.124349   -1.911827
H      0.094020   -1.505224    1.544534
H      3.252498   -0.402327   -1.213004
H      2.411693    2.133755    2.096110
H     -0.433023   -0.904991   -2.083152
H     -0.470798    0.776732    1.352055
