45

C     -6.589694    0.178125   -0.677367
C      6.403824   -0.523117   -1.041515
C     -1.708286   -0.424251   -2.169674
C     -0.709083   -1.468685   -1.718938
C      0.500990    0.380303    1.303083
C      2.783624    1.290256    1.519621
C     -3.825607    0.027512   -0.848080
C      3.699986   -0.500525   -0.315235
C     -2.320172    0.595702    1.400343
C      1.420249   -1.501827   -0.610921
C     -2.463905   -0.044711   -0.925159
C      1.932269    0.395323    0.944565
C      2.362182   -0.519043    0.017659
C     -1.724653    0.241778    0.205244
C     -0.251927    0.141466    0.024778
C      4.146948    1.328029    1.197252
C     -3.693406    0.672656    1.493219
C     -4.429494    0.385962    0.361703
C      4.566232    0.403841    0.264309
N      0.052596   -1.109144   -0.557494
O      5.005825    2.237130    1.782970
O     -4.322577    1.030512    2.697829
O     -5.799054    0.458753    0.439711
O      5.910044    0.400559   -0.089578
H     -7.658113    0.367118   -0.376200
H     -6.395196    0.808314   -1.553502
H     -6.504437   -0.884966   -0.982777
H      5.751956   -0.536714   -1.916537
H      7.434158   -0.170337   -1.334126
H      6.489552   -1.527752   -0.537320
H     -2.373252   -0.922147   -2.904422
H     -1.258467    0.436443   -2.660713
H     -1.305587   -2.375285   -1.459170
H     -0.089869   -1.755128   -2.592357
H      0.332662   -0.417579    2.057163
H      0.181313    1.346187    1.765107
H      2.472130    2.030178    2.260231
H     -4.408538   -0.196989   -1.734984
H      4.038298   -1.232901   -1.056133
H     -1.707397    0.816610    2.281496
H      1.581055   -2.462839   -0.078358
H      1.750221   -1.672270   -1.664246
H      0.064797    0.978637   -0.667568
H      5.975481    2.204390    1.500575
H     -5.317680    1.090425    2.780087
