22

C     -2.643723   -0.248423    0.230016
C      2.784544    0.059891   -0.084068
C      0.619485    0.803639    0.907615
C     -0.639623   -1.062262   -0.884404
C     -1.437298    0.195765   -0.553419
C      1.353402   -0.327934    0.226593
C     -0.612309    1.179372    0.163706
N      0.737049   -0.673487   -1.055825
O     -0.946661    2.352265    0.151563
H     -2.836263   -1.341103    0.133651
H     -3.575130    0.260084   -0.097688
H     -2.512114   -0.041111    1.321796
H      3.153520    0.749640    0.707064
H      2.793609    0.599871   -1.074172
H      3.431744   -0.824923   -0.161661
H      1.328480    1.664539    1.005243
H      0.383437    0.485337    1.948408
H     -0.744909   -1.835316   -0.091297
H     -0.982005   -1.520056   -1.833054
H     -1.803267    0.582911   -1.526619
H      1.385478   -1.219741    0.853160
H      0.762554    0.161043   -1.687502
