22

C      2.848612    0.193202    0.001212
C     -2.677977    0.023375    0.608524
C     -0.678741   -1.292778    0.031752
C      0.598967    1.049399   -0.675104
C      1.392027    0.169319    0.300750
C     -1.411273   -0.050485   -0.251935
C      0.770411   -1.165290    0.220830
N     -0.701578    1.169172   -0.064347
O      1.429814   -2.188965    0.307867
H      3.187992   -0.525336   -0.752088
H      3.410066    0.146681    0.955868
H      3.085100    1.213229   -0.422403
H     -2.883229    1.078338    0.912052
H     -3.559308   -0.321313    0.061755
H     -2.574171   -0.570169    1.532998
H     -0.835338   -2.055999   -0.785057
H     -1.105554   -1.787502    0.951498
H      0.453755    0.459471   -1.617451
H      1.095666    1.993278   -0.883006
H      1.218093    0.565504    1.317797
H     -1.791947   -0.053514   -1.314149
H     -1.271388    1.950382   -0.437362
