44

C     -3.838063    1.435214    0.643666
C     -4.227754   -0.658024   -0.685716
C     -5.063805   -0.446910    1.589842
C      5.979034   -0.427545    0.828597
C      5.835511   -0.591025   -0.522606
C      4.873196   -0.036214    1.571602
C      4.608628   -0.364678   -1.102663
C      2.530043    0.578531    1.697633
C      1.292734    0.802052    1.082417
C      2.248968    0.252958   -0.985178
C     -0.233894    0.643585   -2.354691
C      3.633651    0.189761    0.968095
C      3.498426    0.023035   -0.391337
C      1.159447    0.633743   -0.281299
C     -0.166476    0.896992   -0.886009
C      0.027483   -0.694949   -2.831942
C     -1.478320   -0.496069    0.663609
C     -3.905764   -0.070108    0.663094
N     -1.253728    0.402805   -0.141838
O      0.268147   -1.739403   -2.196551
O      0.012856   -0.869137   -4.233349
O     -0.504874   -1.377623    1.079894
O     -2.748244   -0.663788    1.198432
H     -3.340976    1.773572   -0.286213
H     -3.373814    1.799416    1.562847
H     -4.875019    1.824840    0.603528
H     -4.804774   -1.592784   -0.527147
H     -3.326631   -0.941645   -1.264575
H     -4.776040    0.090058   -1.289785
H     -5.928345    0.196536    1.259903
H     -5.369631   -1.486128    1.480651
H     -4.865750   -0.134328    2.638628
H      6.920147   -0.590368    1.345767
H      6.709710   -0.897253   -1.089096
H      4.938356    0.105615    2.643649
H      4.518054   -0.499165   -2.167463
H      2.624403    0.714676    2.778602
H      0.453332    1.108695    1.689608
H      2.204286    0.120119   -2.043431
H      0.555033    1.314421   -2.815640
H     -1.186704    1.087439   -2.716651
H     -0.266007    2.038167   -0.812397
H      0.446731   -1.678647   -4.669394
H      0.196435   -1.776435    0.501676
