31

C      4.074140    1.291105   -0.505194
C     -4.824356    1.282312    0.563823
C     -4.044608    0.846009    1.572382
C     -4.446797    1.068825   -0.759650
C      1.943244   -2.090425   -1.419982
C     -2.829958    0.189387    1.329451
C     -3.259770    0.465145   -1.003834
C      2.754157   -1.185742   -0.747191
C      0.599802   -1.893335   -1.358204
C      0.839510    0.025291   -0.057886
C      3.839788    0.040118    1.572839
C      3.139701    0.859209    0.586059
C     -2.441379    0.014154    0.055710
C      2.161493   -0.120770   -0.107837
C     -0.024827   -0.842783   -0.641571
C     -1.403897   -0.931173   -0.377864
N      4.423973   -0.616044    2.392402
O     -2.029041   -2.161730   -0.563801
H      4.931240    1.931127   -0.139029
H      4.524454    0.404652   -0.977273
H      3.522609    1.846119   -1.309485
H     -5.732269    1.801127    0.767281
H     -4.350469    0.881701    2.643542
H     -5.219598    1.194058   -1.523446
H      2.392078   -3.008538   -1.778382
H     -2.288651   -0.224010    2.148105
H     -2.907792    0.352459   -2.019110
H      3.781285   -1.425815   -0.558690
H     -0.090132   -2.566137   -1.905551
H      0.374790    0.907705    0.440782
H      2.591282    1.666001    1.025973
