13

C     -1.137397   -0.752790   -0.570958
C      1.037784    0.380224   -0.072744
C      1.647098   -0.839229    0.418895
C     -0.467875    0.381929    0.136079
N      2.131843   -1.826140    0.799737
O     -0.974383    1.579111   -0.382656
H     -1.709256   -0.427015   -1.481851
H     -0.426515   -1.525776   -0.921397
H     -1.905000   -1.270192    0.064779
H      1.287704    0.475046   -1.148542
H      1.489555    1.242390    0.434185
H     -0.697755    0.305490    1.217330
H     -0.275803    2.276952   -0.264382
