13

C      0.170452    1.293489    0.945357
C     -1.021496   -0.317349   -0.504368
C     -0.240444   -1.395847   -1.545305
C      0.365205    0.209511   -0.021255
N      0.439620   -2.329643   -2.417248
O      0.993724   -0.933659    0.494945
H      1.179444    1.509884    1.436890
H     -0.454188    0.961180    1.806219
H     -0.237868    2.230905    0.560908
H     -1.383184    0.261512   -1.325133
H     -1.521092   -1.089460    0.020901
H      0.814555    0.546351   -0.976430
H      0.895272   -0.946874    1.524519
