32

C     -3.496285    0.586490    0.066118
C     -2.980599   -0.803470    0.115968
C     -2.479536    1.506385   -0.537672
C      3.238884    0.498516    0.362498
C      2.115983   -0.275076    1.084237
C      3.765447   -0.645790   -0.480071
C     -1.545230   -0.950752    0.559349
C     -1.227320    1.400656    0.333789
C      0.366016   -0.132413   -0.697161
C      1.492551   -0.949336   -0.121273
N      2.546960   -1.176055   -1.057886
N     -0.701431    0.104829    0.179412
H     -4.385680    0.610748   -0.612439
H     -3.746577    0.957038    1.079904
H     -3.176643   -1.288105   -0.877309
H     -3.606708   -1.372910    0.834938
H     -2.262554    1.215886   -1.579001
H     -2.816709    2.569628   -0.531140
H      2.797810    1.256639   -0.322338
H      3.958448    0.924789    1.056780
H      2.612342   -0.996532    1.740914
H      1.445536    0.374534    1.633757
H      4.205449   -1.362078    0.238326
H      4.491850   -0.318655   -1.245010
H     -1.536611   -1.063402    1.666666
H     -1.176262   -1.910799    0.145922
H     -0.567507    2.219911    0.046450
H     -1.600250    1.492530    1.391070
H      0.014590   -0.717841   -1.595494
H      0.780666    0.819280   -1.144053
H      1.092067   -1.929365    0.208703
H      2.381303   -0.645280   -1.943953
