21

C     -1.709587    1.376002    1.003802
C      0.848814   -1.073721    0.882629
C      0.833399    0.708045   -0.650753
C      2.204585   -1.223318    0.713003
C      2.193255    0.588028   -0.846788
C     -1.344616    0.055302    0.391924
C      0.115183   -0.102209    0.206302
C      2.889195   -0.399189   -0.148617
C     -2.110085   -0.235575   -0.837549
Cl     4.607836   -0.529279   -0.415017
O     -2.816281    0.676478   -1.317244
O     -2.078628   -1.457576   -1.471213
H     -1.779667    2.195258    0.267875
H     -2.700968    1.256865    1.483390
H     -0.972774    1.579773    1.810209
H      0.316278   -1.725926    1.562453
H      0.262351    1.476312   -1.187580
H      2.769803   -1.975561    1.237300
H      2.732122    1.240652   -1.528382
H     -1.662313   -0.730969    1.139818
H     -2.597905   -1.699393   -2.295561
