27

C      0.946156    1.501030   -0.753859
C      0.444188    0.732912    1.585900
C     -2.042521    1.137739   -0.149607
C     -1.315620   -1.214369    0.388356
C      0.079500   -1.822760    0.534687
C      2.369812   -1.027983   -0.077361
C     -0.713471   -0.268607   -1.727188
C      0.365548    0.457729    0.137105
C     -1.055078    0.082935   -0.320936
C      0.955419   -0.905636   -0.251965
Cl     3.477132   -1.215536   -1.424439
O      2.852090   -1.004209    1.041124
O     -1.367329   -0.013689   -2.767071
O      0.510285   -0.951120   -1.614724
H      1.691621    1.082247   -1.474794
H      1.507547    2.291230   -0.190465
H      0.165485    1.994552   -1.396237
H     -0.228801    0.070710    2.153442
H      1.494037    0.680221    1.915051
H      0.117568    1.778697    1.754015
H     -1.613804    1.958689    0.491242
H     -2.919147    0.760077    0.447836
H     -2.465802    1.570104   -1.066284
H     -1.835630   -1.115680    1.338132
H     -1.864386   -1.886856   -0.319687
H      0.324738   -1.817221    1.614648
H      0.120461   -2.855204    0.133079
