39

C     -1.832345   -1.975963    0.916442
C     -5.599077    0.977717   -0.010423
C     -5.338105    0.074004   -1.022240
C     -4.654805    1.271472    0.946615
C      5.502756   -0.968047   -0.145700
C      4.435875   -1.824633   -0.267958
C      2.462191    2.701289    0.351282
C     -4.130546   -0.549099   -1.092632
C     -3.420774    0.633734    0.873613
C      5.270110    0.371070    0.038446
C      3.757060    2.232724    0.290648
C      1.371793    1.859621    0.231055
C      3.147855   -1.318767   -0.202774
C      0.519151   -0.488457   -0.098408
C     -1.837223   -0.927594   -0.170837
C     -3.161138   -0.264114   -0.131638
C      3.980178    0.869570    0.102604
C      1.573437    0.518180    0.045850
C      2.888602    0.038972   -0.016145
N     -0.818055    0.053822   -0.024013
H     -2.797542   -2.012712    1.482376
H     -1.709656   -3.009113    0.493142
H     -1.044595   -1.842502    1.661487
H     -6.556429    1.469859    0.042058
H     -6.074118   -0.172384   -1.788919
H     -4.838273    1.975661    1.748261
H      6.517700   -1.377839   -0.198548
H      4.633496   -2.886601   -0.414373
H      2.314759    3.759128    0.498664
H     -3.846745   -1.267148   -1.850250
H     -2.711620    0.898460    1.657694
H      6.112413    1.036448    0.134078
H      4.626468    2.855120    0.379068
H      0.359011    2.216265    0.276397
H      2.301524   -1.970615   -0.295772
H      0.623405   -0.968641   -1.092128
H      0.678449   -1.245637    0.722872
H     -1.763620   -1.470938   -1.145033
H     -0.941565    0.727687    0.733148
