23

C      2.417599    0.067177   -0.822783
C      1.743331   -0.548963    1.435041
C     -1.784196    1.699087    0.299114
C     -2.022410   -1.320192   -0.647036
C     -0.752391    0.821180   -0.362379
C     -0.880719   -0.628499    0.043433
C      1.219155   -0.112693    0.083003
F     -1.562489    2.990862   -0.150253
F     -1.908388   -1.322873   -2.013107
O      0.533158    1.074679    0.119204
O      0.360576   -1.102292   -0.366194
H      2.563853   -0.768096   -1.511418
H      2.328547    1.012334   -1.430473
H      3.344519    0.191551   -0.225107
H      2.546783    0.116663    1.801565
H      0.951798   -0.679226    2.186996
H      2.206416   -1.554552    1.282494
H     -2.773377    1.393885   -0.119084
H     -1.733372    1.592267    1.379935
H     -2.066596   -2.354389   -0.276284
H     -2.952457   -0.803050   -0.339970
H     -0.737886    0.938060   -1.456596
H     -1.041454   -0.702920    1.124203
