18

C     -1.851790    0.559861    0.271718
C      1.865546   -0.358807    0.276628
C     -0.618737   -0.278525    0.345053
C      0.648295    0.539160    0.194800
N     -0.603405   -1.386060   -0.572140
N      0.706281    1.275255   -1.029926
H     -1.628705    1.629471    0.008228
H     -2.534336    0.208685   -0.546512
H     -2.442081    0.588878    1.204159
H      1.670965   -1.356864   -0.180021
H      2.722698    0.071776   -0.302297
H      2.158327   -0.543037    1.328527
H     -0.578674   -0.715273    1.382608
H      0.711020    1.222163    1.086574
H     -0.286266   -2.279118   -0.099949
H     -1.579232   -1.559204   -0.950415
H      1.642038    1.353111   -1.453751
H     -0.001943    1.028527   -1.731867
