23

C      2.372592   -0.466393   -1.305496
C      1.690921   -0.027213    1.011731
C     -1.740653    1.777640   -0.450011
C     -1.763306   -1.270799    0.798390
C     -0.666912    0.821655   -0.024234
C     -1.006611   -0.615611   -0.313289
C      1.186726   -0.191682   -0.418260
F     -2.887699    1.469355    0.221674
F     -2.027570   -2.573962    0.445947
O      0.503338    0.973511   -0.803699
O      0.234397   -1.179042   -0.533376
H      2.924711    0.465343   -1.522743
H      2.025058   -0.957362   -2.230030
H      3.030590   -1.174429   -0.755459
H      1.674053    1.069351    1.277194
H      1.050917   -0.527805    1.746586
H      2.716877   -0.394989    1.136747
H     -1.398873    2.798740   -0.193831
H     -1.917922    1.710858   -1.541801
H     -2.733311   -0.737624    0.902151
H     -1.231901   -1.269438    1.759828
H     -0.428272    0.984400    1.028321
H     -1.607150   -0.684507   -1.235907
