23

C     -2.035767    1.328101   -0.323167
C     -1.878057    0.477071    0.886278
C      2.584758   -0.990164    0.351339
C     -1.150350   -0.814080    0.635756
C      2.984103    0.439910    0.172667
C      0.206367   -0.649768    0.129207
N     -1.987763   -1.620436   -0.252491
N      1.221859   -1.099250    0.761347
O      4.153986    0.706193   -0.186596
O      2.067859    1.436698    0.403608
O      0.411437    0.010527   -1.069899
H     -2.091782    0.744813   -1.253567
H     -3.008508    1.888953   -0.222757
H     -1.256974    2.142940   -0.382806
H     -2.881161    0.214954    1.282701
H     -1.380931    1.077607    1.682145
H      3.231005   -1.403031    1.152796
H      2.835267   -1.552620   -0.568175
H     -1.116543   -1.362963    1.598583
H     -2.844338   -1.122332   -0.541237
H     -1.419846   -1.985566   -1.050039
H      2.123468    2.302748   -0.120317
H      1.231914   -0.170307   -1.667500
