23

C     -2.516697    0.056446    0.698135
C     -2.423454    0.115464   -0.805876
C      2.018851    0.725965    0.541877
C     -1.072213   -0.360187   -1.299994
C      3.284882   -0.048589    0.541061
C      0.007386    0.474497   -0.752187
N     -0.949248   -1.749908   -0.943120
N      0.941913   -0.023061   -0.022114
O      4.343941    0.451595    1.000719
O      3.370875   -1.342054    0.043490
O      0.014243    1.832192   -1.032334
H     -1.535700    0.142566    1.196567
H     -2.962687   -0.904799    1.021688
H     -3.225819    0.858470    1.014069
H     -2.494122    1.193853   -1.108260
H     -3.254252   -0.445893   -1.229858
H      2.216125    1.694858    0.016501
H      1.781720    1.021635    1.603321
H     -1.099986   -0.312070   -2.410989
H     -0.054930   -2.178482   -1.250765
H     -1.058640   -1.916330    0.085652
H      4.288691   -1.791409   -0.095701
H      0.379121    2.505240   -0.345255
