18

C     -0.354075   -1.307305    0.604644
C      0.772819   -1.623091   -0.015895
C      0.112892    0.434959   -0.874570
C     -0.593722    0.121585    0.421913
C      1.373039   -0.421688   -0.663800
C     -2.021100    0.497503    0.395712
N      2.209234    0.327854    0.247085
O     -2.881024   -0.393823    0.526039
O     -2.423923    1.813959    0.230110
H     -0.944831   -2.063348    1.142949
H      1.215714   -2.620836   -0.057303
H     -0.449206    0.102204   -1.760681
H      0.367782    1.491824   -0.932647
H     -0.045653    0.668884    1.221351
H      1.833451   -0.627983   -1.628716
H      3.222327    0.170011    0.040092
H      1.999281    1.343696    0.246778
H     -3.393005    2.085595    0.065630
