20

C     -2.158868    0.254390   -0.964719
C      2.730072    0.470133    0.231846
C      1.918202    1.214677   -0.595550
C      2.275344   -0.678978    0.852729
C      0.606109    0.791660   -0.806760
C      0.955570   -1.074924    0.619824
C     -1.971878   -0.220908    1.746279
C     -1.272967   -0.812887   -0.417778
C      0.128652   -0.356766   -0.195079
N     -1.804922   -1.178437    0.903680
O     -2.345769    0.785040    2.394256
H     -2.155227    0.308440   -2.068749
H     -3.212590   -0.002948   -0.673932
H     -1.926630    1.219527   -0.478037
H      3.748350    0.793196    0.399402
H      2.269152    2.113710   -1.083191
H      2.896477   -1.269441    1.500178
H     -0.052012    1.340697   -1.439714
H      0.627629   -1.967493    1.111791
H     -1.254693   -1.728689   -1.036479
