44

C      6.148230    1.661151    0.136405
C     -5.783030    2.077660   -0.623631
C      5.250461    1.713069    1.167755
C      6.100025    0.632869   -0.787713
C     -6.002793    0.861569   -1.223891
C     -4.924854    2.123251    0.457705
C      4.291570    0.705160    1.259148
C      5.144999   -0.355888   -0.682403
C     -5.374304   -0.286637   -0.749193
C     -4.303232    0.981894    0.925688
C      3.195786   -1.414022    0.441168
C     -3.823836   -1.421014    0.877863
C      1.744749   -0.467308   -1.132723
C     -1.685821   -0.631084    0.463623
C      4.223810   -0.327225    0.352417
C     -4.515850   -0.251722    0.329625
C      0.660780   -0.006379   -0.190969
C     -0.412002   -1.052516   -0.196156
O      1.082457    0.392985    1.031229
O      0.029078   -2.220202    0.452245
O      2.471485   -1.535571   -0.707848
O     -2.589033   -1.666935    0.313516
H      6.900030    2.435428    0.049584
H     -6.274982    2.976554   -0.995165
H      5.263377    2.510777    1.911427
H      6.827093    0.626654   -1.588882
H     -6.669643    0.788333   -2.074299
H     -4.763828    3.086584    0.916940
H      3.595179    0.749919    2.065811
H      5.086016   -1.168185   -1.389547
H     -5.543623   -1.241937   -1.216597
H     -3.641553    1.107599    1.783741
H      3.792833   -2.359841    0.542368
H      2.621630   -1.287619    1.357603
H     -3.755753   -1.359822    2.003204
H     -4.450715   -2.318376    0.681582
H      1.195513   -0.807299   -2.063919
H      2.360166    0.386269   -1.495251
H     -1.504731   -0.537469    1.574964
H     -2.072122    0.338931    0.098117
H      0.206152    0.900939   -0.692763
H     -0.652361   -1.362444   -1.233669
H      0.594135    0.038514    1.808199
H     -0.041483   -3.016613   -0.097862
