26

C     -2.278650   -1.483134    0.130114
C      1.768082    0.318921    1.301402
C      1.646997   -0.223713   -0.977058
C      0.402510    0.297722    1.352583
C      0.247505   -0.247435   -0.932519
C      2.426751    0.055170    0.119753
C     -0.391239    0.018535    0.255400
C      3.882911    0.078567    0.067993
C     -2.518799    0.719244   -0.779189
C     -1.853966   -0.014960    0.307655
N     -2.415951    0.409957    1.549184
O      4.602443    0.365763    1.206208
O      4.500454   -0.157282   -0.991646
O     -3.383562    1.579959   -0.490261
O     -2.260486    0.530780   -2.122166
H     -1.757862   -2.137349    0.825988
H     -2.068515   -1.786412   -0.916428
H     -3.377491   -1.536992    0.268090
H      2.341368    0.548631    2.212378
H      2.148775   -0.432053   -1.908553
H     -0.090365    0.504844    2.278012
H     -0.233368   -0.485408   -1.864934
H     -2.726433    1.380311    1.598413
H     -2.057429   -0.025215    2.389107
H      5.625708    0.378198    1.164478
H     -2.179388    1.343352   -2.745265
