19

C      2.629855    0.062789    0.067220
C      1.911807   -1.071382    0.372728
C      2.010338    1.202137   -0.406693
C      0.557195   -1.047242    0.195592
C      0.635270    1.167468   -0.565881
C     -2.277765    0.293590    0.855815
C     -0.127666    0.056643   -0.274088
C     -1.568355    0.118556   -0.473739
Cl    -1.892864   -1.080539    1.901953
O     -2.125426   -0.980888   -1.088370
H      3.710647    0.068757    0.199756
H      2.421488   -1.948183    0.741542
H      2.575649    2.100068   -0.648969
H      0.006004   -1.939375    0.437142
H      0.165618    2.065585   -0.937134
H     -1.917230    1.229088    1.337256
H     -3.375393    0.356674    0.730263
H     -1.835638    1.017134   -1.082180
H     -1.503533   -1.670880   -1.362213
