23

C      3.647301   -0.295901   -0.332516
C     -2.789566   -0.689771    0.929062
C      1.492230    0.934057   -0.767982
C      1.444055   -0.989959    0.586652
C      0.129428    1.092563   -0.610393
C      0.070667   -0.832455    0.747025
C      2.176842   -0.106700   -0.175186
C     -2.058117    0.435920    0.279533
C     -0.610059    0.210003    0.152277
N     -2.618018    0.743178   -0.999415
H      4.220920    0.381421    0.347484
H      3.903311   -1.324715   -0.027964
H      3.968120   -0.070597   -1.359265
H     -2.917089   -1.578009    0.289338
H     -2.371046   -0.922285    1.932283
H     -3.835978   -0.321723    1.136921
H      2.094004    1.623009   -1.368173
H      1.950802   -1.813526    1.062632
H     -0.384461    1.926399   -1.092144
H     -0.512035   -1.520244    1.342637
H     -2.212663    1.345066    0.929544
H     -2.415563    1.720099   -1.260152
H     -2.373084    0.054172   -1.742198
