27

C      3.945668   -0.803969    0.490884
C      3.909293    1.461762   -0.142383
C      2.591613   -0.859628    0.220049
C      2.566189    1.386119   -0.405387
C      4.624403    0.378695    0.307805
C      1.843974    0.190733   -0.227988
C     -1.891450   -0.781024   -0.750760
C     -2.534958    0.324493    0.038084
C     -0.424818   -0.908481   -0.405690
C     -3.969171    0.362537   -0.352968
F      5.953961    0.439454    0.572051
N      0.455851    0.177783   -0.517930
O     -2.534605   -1.999156   -0.552197
O     -2.500482    0.052571    1.405128
O      0.009673   -2.005859   -0.012364
O     -4.267053    0.596301   -1.565316
O     -4.999993    0.158152    0.526472
H      4.481527   -1.682034    0.846583
H      4.462578    2.392874   -0.282519
H      2.127319   -1.807015    0.383558
H      2.044503    2.265319   -0.758408
H     -1.948193   -0.549306   -1.826089
H     -2.093426    1.291483   -0.217048
H      0.018591    1.099130   -0.863512
H     -2.699922   -2.193778    0.398672
H     -3.239539    0.530393    1.894126
H     -5.931534    0.482453    0.368480
