30

C      5.433151   -0.226515   -0.009638
C      3.259407   -0.262221   -1.253866
C      3.268379    0.221641    1.048962
C      1.896676   -0.131161   -1.304213
C      1.885316    0.352312    0.985964
C      3.948922   -0.087599   -0.083520
C      1.159303    0.187433   -0.154574
C     -2.641867    0.583977    0.448085
C     -3.347743   -0.580484    1.105954
C     -1.157190    0.453979    0.753981
C     -4.786060   -0.468748    0.800150
N     -0.233181    0.312161   -0.303334
O     -2.812445    0.533456   -0.925705
O     -2.834089   -1.768943    0.639059
O     -0.772597    0.474495    1.943254
O     -5.351023   -1.393475    0.194143
O     -5.539343    0.644347    1.169002
H      5.660081   -1.312511   -0.024389
H      5.814388    0.252540    0.905178
H      5.843733    0.285409   -0.903267
H      3.810925   -0.508875   -2.153495
H      3.769565    0.368336    1.993504
H      1.389427   -0.276216   -2.243282
H      1.368410    0.607447    1.905972
H     -2.952380    1.551064    0.857635
H     -3.179162   -0.503028    2.195174
H     -0.661931    0.304888   -1.291516
H     -2.796630    1.461107   -1.269836
H     -3.004896   -1.857204   -0.319975
H     -6.437147    0.782389    0.734730
