23

C      3.661177    0.204695    0.457897
C     -2.715527   -1.132151    0.044311
C      1.425811   -0.936669    0.578084
C      1.571906    1.106853   -0.565467
C      0.077608   -1.003191    0.291868
C      0.223176    1.038342   -0.850663
C      2.207072    0.118974    0.157269
C     -2.013926   -0.078525   -0.744673
C     -0.559787   -0.016318   -0.430827
N     -2.602397    1.186558   -0.504342
H      3.927675    1.234977    0.707082
H      4.239057   -0.081543   -0.463858
H      3.925081   -0.540166    1.223915
H     -2.629540   -0.916100    1.129298
H     -2.368530   -2.171810   -0.203510
H     -3.787910   -1.109314   -0.232511
H      1.918118   -1.716581    1.146468
H      2.185878    1.944179   -0.900630
H     -0.535127   -1.840667    0.627415
H     -0.273525    1.828089   -1.425777
H     -2.141583   -0.324442   -1.828972
H     -2.306952    1.968409   -1.059360
H     -3.427756    1.236400    0.062475
