36

C     -3.113730    0.758690   -0.422880
C     -4.068731   -0.995360    0.973834
C     -2.205347    0.287723    1.843943
C      4.329163   -0.373264    1.380861
C      3.153358   -0.032552    1.988913
C      4.382991   -0.325225    0.002409
C      2.062868    0.345324    1.239430
C      3.286103    0.054393   -0.741492
C      0.989057    0.587720   -2.365150
C      2.088779    0.402648   -0.149869
C      0.885873    0.818072   -0.874488
C     -0.669949   -0.990268   -0.469838
C     -2.760870   -0.333070    0.582231
N     -0.341517    0.243301   -0.419080
O     -0.110108    1.204647   -3.005170
O      0.176022   -1.954858   -1.001025
O     -1.935425   -1.314943    0.042215
H     -2.936142    0.425196   -1.468907
H     -4.185233    1.041894   -0.363890
H     -2.539308    1.695180   -0.187110
H     -3.896132   -2.097147    1.128938
H     -4.839945   -0.899913    0.180371
H     -4.443297   -0.625212    1.961730
H     -1.834676   -0.529437    2.497933
H     -1.446950    1.065419    1.641019
H     -3.053175    0.791208    2.353307
H      5.191847   -0.672237    1.974518
H      3.100355   -0.066471    3.062075
H      5.308498   -0.593228   -0.480050
H      1.136001    0.613272    1.731977
H      3.368996    0.078046   -1.801592
H      1.881657    1.016055   -2.823425
H      0.929025   -0.479540   -2.649044
H      0.798610    1.929621   -0.729194
H      0.145727    1.511290   -3.895608
H      1.165604   -1.904462   -0.737893
