47

C     -3.776346   -2.940693    1.288328
C     -5.120514    2.749244   -0.044465
C     -2.464006   -3.216267    0.925890
C     -4.028878    3.371009   -0.614113
C     -4.330628   -1.703154    1.088159
C     -5.036270    1.424190    0.344274
C     -1.722622   -2.215056    0.356628
C     -2.883171    2.623805   -0.770851
C      4.432964   -1.060214    1.023853
C      2.971261   -1.325838    1.160660
C      3.331971    0.894627    0.278578
C     -1.099745    0.185821   -1.798297
C      4.537181    0.435985    1.077761
C      2.272614   -0.070898    0.750828
C     -3.534125   -0.709815    0.502507
C     -3.878204    0.671329    0.185084
C     -2.235121   -0.924534    0.125460
C     -2.793761    1.279727   -0.377886
C     -1.698340    0.291632   -0.441454
C      5.799075    0.945385    0.524395
C      1.172397   -0.560965   -1.363135
N      1.171184   -0.235754   -0.129277
O      6.562047    1.610340    1.268615
O      6.190534    0.728198   -0.781229
O      2.380493   -0.806682   -2.015501
O     -0.045293   -0.654699   -2.000783
H     -4.408366   -3.704172    1.745256
H     -6.033389    3.329727    0.085107
H     -2.032883   -4.193864    1.086327
H     -4.058649    4.405328   -0.929889
H     -5.355412   -1.456760    1.361357
H     -5.880382    0.915492    0.793552
H     -0.692377   -2.340224    0.043368
H     -2.020591    3.101551   -1.216695
H      4.884708   -1.392970    0.075707
H      5.028466   -1.550141    1.828870
H      2.623446   -2.233869    0.614883
H      2.796811   -1.592357    2.246032
H      3.111578    1.938546    0.639925
H      3.485506    0.899307   -0.802348
H     -1.918107   -0.083930   -2.527387
H     -0.812167    1.233324   -2.109763
H      4.364136    0.749279    2.114809
H      1.873677    0.384506    1.709258
H     -0.928545    0.678455    0.294488
H      6.669864    1.469782   -1.292255
H      3.127979   -1.343736   -1.548220
