20

C     -1.725965   -0.790012   -1.544520
C      2.786074    0.108287    0.435881
C      2.063785   -0.940073    0.985978
C      2.101324    1.039478   -0.315828
C      0.702428   -1.039988    0.782014
C      0.741393    0.966139   -0.537093
C     -2.505248    1.408651    1.159089
C     -1.422764   -0.229336   -0.175689
C      0.020845   -0.094446    0.021434
N     -2.030040    1.068959    0.026515
S     -3.012169    1.994755    2.574375
H     -2.762210   -1.182931   -1.523094
H     -1.593950    0.030290   -2.277971
H     -1.003496   -1.603859   -1.745418
H      3.852176    0.175353    0.602978
H      2.566627   -1.694918    1.584949
H      2.667613    1.864426   -0.749108
H      0.160096   -1.876077    1.227420
H      0.231724    1.714606   -1.133214
H     -1.838243   -0.919305    0.601300
