29

C     -3.865091   -1.040187   -0.709049
C      4.925553    0.651031    0.597094
C     -1.410725    1.227550    0.984244
C     -0.038822    1.319123    1.109497
C      0.968107   -1.222464   -1.319141
C      2.335385   -1.158124   -1.220312
C     -1.187211   -0.480001   -0.659580
C      2.110009    0.551085    0.425026
C     -3.471253    0.247992   -0.017463
C     -1.983864    0.341246    0.112538
C      0.177270   -0.391926   -0.537911
C      0.749511    0.505935    0.344925
C      2.916871   -0.266140   -0.342915
O     -3.993141    0.243153    1.272053
O      4.301199   -0.243614   -0.284045
H     -3.590855   -1.026233   -1.779640
H     -3.406642   -1.886563   -0.168861
H     -4.975506   -1.098495   -0.662651
H      6.001875    0.354857    0.676203
H      4.507404    0.558013    1.606927
H      4.853025    1.698739    0.233164
H     -2.051550    1.876072    1.593620
H      0.431975    2.013932    1.793467
H      0.491652   -1.927438   -2.013038
H      2.943026   -1.810018   -1.833825
H     -1.601907   -1.189914   -1.356538
H      2.589248    1.229239    1.093125
H     -3.849661    1.128785   -0.580647
H     -4.875883   -0.205636    1.311695
