47

C     -3.999230    3.140771    1.244430
C     -5.115524   -2.439592   -0.587234
C     -2.634705    3.249501    1.430469
C     -3.926313   -3.131582   -0.664763
C     -4.472392    1.894809    0.826130
C     -5.109479   -1.125339   -0.169337
C     -1.787446    2.183800    1.214457
C     -2.725637   -2.564893   -0.341018
C      4.396713    0.726580   -1.437556
C      3.995115   -0.694467   -1.111078
C      3.036300    0.613955    0.568281
C     -0.531180   -0.233077   -0.516581
C      4.147032    1.410120   -0.098245
C      2.635918   -0.443100   -0.420631
C     -3.608778    0.842759    0.615693
C     -3.888375   -0.509383    0.172295
C     -2.270756    0.936695    0.794990
C     -2.726345   -1.231504    0.082891
C     -1.628775   -0.349967    0.504862
C      5.377103    1.311528    0.742895
C      0.971569   -2.105030    0.006280
N      2.145909   -1.632267    0.166919
O      5.342181    0.727472    1.857021
O      6.548327    1.863221    0.291931
O      0.620342   -3.311364    0.653717
O      0.154281   -1.371673   -0.800075
H     -4.690956    3.952272    1.403874
H     -6.019470   -2.969478   -0.863467
H     -2.243002    4.215071    1.757223
H     -3.895719   -4.177756   -0.993492
H     -5.540006    1.810297    0.680723
H     -6.034127   -0.570215   -0.103772
H     -0.731324    2.276334    1.360889
H     -1.784366   -3.066405   -0.394689
H      3.739352    1.137790   -2.216223
H      5.468661    0.805042   -1.723199
H      4.702213   -1.174538   -0.437755
H      3.863473   -1.277239   -2.038033
H      3.406157    0.110882    1.481787
H      2.179573    1.236711    0.814593
H      0.145029    0.573290   -0.096322
H     -0.930455    0.285243   -1.449879
H      3.806829    2.450293   -0.227009
H      1.972427   -0.110707   -1.229307
H     -1.190876   -0.738534    1.446549
H      7.452339    1.470897    0.556582
H      1.378393   -3.997225    0.795362
