38

C      6.081803   -0.478222   -1.022310
C      4.735247   -0.094401   -0.337605
C      3.638014   -0.341803   -1.290249
C     -6.740084    0.398631   -0.138222
C     -6.294550   -0.907011    0.026867
C     -5.828783    1.408472   -0.193036
C     -4.949245   -1.197711    0.135931
C     -4.487632    1.110390   -0.083429
C      2.273523    0.040593   -0.923594
C     -2.546749   -0.475682    0.198336
C     -4.004755   -0.170942    0.081237
C      1.590498   -0.464218    0.258859
C      2.022309   -0.168833    1.612771
C     -0.476327    0.805773    0.181545
N      0.130829   -0.315483    0.184534
O      1.036191   -0.138470    2.485881
O      3.248117    0.084078    2.144584
O      0.215769    2.031681    0.251098
O     -1.865981    0.761165    0.105704
H      6.823691   -0.501137   -0.198130
H      6.372197    0.280499   -1.750838
H      5.976523   -1.496232   -1.410223
H      4.706467   -0.906483    0.462958
H      4.789472    0.895969    0.063369
H      3.630663   -1.457697   -1.562367
H      3.900776    0.165898   -2.279766
H     -7.789106    0.643788   -0.225242
H     -7.034360   -1.689147    0.067359
H     -6.102500    2.458737   -0.320921
H     -4.617001   -2.222910    0.264538
H     -3.751902    1.906391   -0.125618
H      2.228152    1.189706   -0.979250
H      1.625239   -0.223530   -1.844797
H     -2.349824   -0.995711    1.155901
H     -2.265111   -1.167058   -0.632654
H      1.688214   -1.628902    0.173489
H      3.379464    0.782178    2.854529
H      1.010751    2.077631    0.874596
