45

C     -4.105700    1.046516   -2.899422
C     -4.201712    0.342958    3.034166
C     -3.252950    0.125468   -3.469423
C     -3.349813   -0.698460    3.346503
C     -4.286236    1.069992   -1.531785
C     -4.381846    0.732610    1.736001
C     -2.597139   -0.756940   -2.642298
C     -2.645324   -1.392908    2.392155
C      4.774323    0.987806    1.176275
C      3.668963    0.425514    1.653918
C      3.940911   -0.397797   -0.522111
C     -0.690321   -1.497139   -0.103609
C      5.188289    0.340001   -0.068796
C      3.198708   -0.672739    0.790935
C     -3.614156    0.167945   -0.700481
C     -3.674828    0.039569    0.749876
C     -2.761394   -0.755724   -1.251578
C     -2.825258   -0.998495    1.057662
C     -2.201787   -1.562019   -0.158314
C      5.665312    1.280032   -1.097160
C      1.048440    0.134954    0.172090
N      1.783260   -0.773011    0.632074
O      5.057275    1.314478   -2.194636
O      6.744272    2.127766   -0.925369
O      1.564489    1.350270   -0.232940
O     -0.329227   -0.151967    0.091083
H     -4.662614    1.779387   -3.482143
H     -4.731407    0.855002    3.825188
H     -3.127081    0.125802   -4.544325
H     -3.201099   -1.016395    4.390979
H     -4.959598    1.795837   -1.071144
H     -5.021030    1.526092    1.413605
H     -1.914565   -1.497651   -3.073248
H     -1.978117   -2.208235    2.634392
H      5.257570    1.830305    1.708573
H      3.139608    0.716595    2.578154
H      4.253836   -1.355921   -0.991556
H      3.311686    0.180405   -1.214602
H     -0.359310   -2.161020    0.721618
H     -0.311884   -1.894651   -1.071042
H      5.953378   -0.430711    0.167781
H      3.623047   -1.647861    1.190223
H     -2.556782   -2.618710   -0.241067
H      7.396945    2.314799   -1.702452
H      2.170866    1.878248    0.369508
