31

C      0.057454    2.907814   -0.100780
C      3.399226   -1.681309   -0.878970
C     -3.765308   -1.135873   -0.043674
C      3.604209   -0.419519   -0.406685
C     -3.583613    0.144775    0.434196
C      2.137275   -2.266652   -0.960478
C     -2.624232   -1.848258   -0.407395
C      2.456596    0.282867    0.001319
C     -2.335402    0.708533    0.550063
C     -0.242918   -2.075352   -0.660654
C      0.332391    1.781493    0.924490
C      1.010897   -1.554893   -0.544916
C     -1.361086   -1.319704   -0.303843
C      1.198965   -0.270384   -0.066743
C     -1.196798   -0.028062    0.179220
C      0.076257    0.487999    0.295677
O      1.343720    1.968523    1.783621
H     -0.038128    3.879247    0.346951
H     -0.833909    2.602570   -0.667903
H      0.877726    2.890702   -0.876763
H      4.272674   -2.270672   -1.216340
H     -4.735848   -1.611465   -0.150061
H      4.578239    0.039454   -0.353647
H     -4.492951    0.694273    0.714341
H      1.997971   -3.257704   -1.341380
H     -2.696794   -2.847961   -0.770964
H      2.607357    1.269287    0.338050
H     -2.226475    1.696894    0.909487
H     -0.396115   -3.059824   -1.023314
H     -0.598116    2.001339    1.624045
H      1.176737    2.291860    2.673049
