20

C     -3.333743    0.115273   -0.600979
C      3.264728    0.356769    0.147620
C     -1.956466   -0.509035   -0.496929
C      2.452781   -0.750500   -0.488332
C     -1.049802    0.550028    0.095919
C      0.332166    0.093243    0.260784
Br    -1.781216    1.031409    1.813718
O      0.826724    0.085473    1.412199
O      1.136122   -0.335031   -0.783811
H     -3.922765   -0.317799   -1.433344
H     -3.846369   -0.002035    0.380672
H     -3.200591    1.195778   -0.805456
H      3.325293    0.215024    1.247781
H      2.811530    1.359222   -0.045915
H      4.305817    0.406560   -0.277371
H     -2.033263   -1.398145    0.156415
H     -1.631154   -0.804517   -1.525875
H      2.419481   -1.597744    0.248743
H      2.995554   -1.118161   -1.364105
H     -1.114828    1.424189   -0.612531
