42

C      3.902253    0.352868   -0.223313
C     -3.284115   -1.565412    0.389854
C     -1.289806    2.714873   -0.040288
C     -2.097164   -2.172418   -0.283239
C      0.128434    2.245251   -0.028762
C      2.586292    1.046758   -0.122354
C      3.809615   -0.951514    0.531505
C     -3.360746   -0.070291    0.044082
C     -2.170746    1.865764    0.842699
C      0.354275   -1.970628   -0.669738
C     -0.848673   -1.436852    0.067656
C      0.204158    0.753542    0.176382
C      1.422144    0.267319   -0.610447
C      2.716965   -1.764428   -0.023383
C     -1.050097    0.045663   -0.270514
N     -2.135105    0.487440    0.534742
N      1.508436   -1.144418   -0.432742
O      2.872407   -3.017966   -0.128639
H      4.268966    0.226312   -1.255518
H      4.648879    0.982620    0.340414
H     -3.116498   -1.593924    1.493622
H     -4.227333   -2.047938    0.105429
H     -1.702330    2.737421   -1.072067
H     -1.300859    3.747804    0.386787
H     -1.993533   -3.221893    0.117412
H     -2.281178   -2.199589   -1.377470
H      0.704040    2.743626    0.793170
H      0.626293    2.538760   -0.984900
H      2.430116    1.306760    0.959730
H      2.654557    1.992385   -0.710878
H      4.792429   -1.456866    0.424417
H      3.592258   -0.717341    1.588473
H     -3.417117   -0.006140   -1.067341
H     -4.244800    0.379941    0.494358
H     -3.189663    2.265536    0.833632
H     -1.786184    1.997007    1.896457
H      0.085455   -2.018933   -1.746931
H      0.524475   -3.009511   -0.319115
H     -0.690101   -1.482790    1.154543
H      0.379589    0.475265    1.236082
H      1.197381    0.518852   -1.683764
H     -1.223364    0.157086   -1.360043
