17

C      2.506635   -0.133415    0.684439
C     -2.725772    0.088097    0.614758
C      1.967346   -0.451845   -0.697868
C     -1.719230    0.568987   -0.392260
C     -0.408850   -0.096698   -0.132712
Br    -1.476168    2.490738   -0.211433
O     -0.285711   -0.920445    0.817104
O      0.708838    0.156483   -0.909442
H      3.622254   -0.186355    0.703707
H      2.158686    0.855081    1.045731
H      2.106836   -0.912707    1.366993
H     -3.765400    0.300542    0.288819
H     -2.506135    0.524488    1.606192
H     -2.632945   -1.027339    0.742303
H      1.888102   -1.547101   -0.852593
H      2.648362   -0.034428   -1.475785
H     -2.086847    0.325919   -1.393451
