27

C     -2.732910    1.702381    0.221484
C     -3.068807    0.270070    0.457275
C     -2.119885   -0.693961   -0.179761
C     -0.724593   -0.467708    0.369257
C      0.271602   -1.425312   -0.250753
C      1.644683   -1.177837    0.316674
C      2.133418    0.217847    0.054324
C      3.530998    0.400627    0.653994
F      4.340394   -0.530238    0.033378
F      4.005712    1.656954    0.425451
F      3.494201    0.112586    2.004172
O      2.149205    0.526269   -1.287687
H     -2.456744    2.183808    1.191689
H     -1.898238    1.878325   -0.466458
H     -3.608784    2.294100   -0.158117
H     -4.096155    0.057618    0.091264
H     -3.091304    0.037225    1.553274
H     -2.424472   -1.722228    0.158301
H     -2.145652   -0.711014   -1.271072
H     -0.433855    0.567860    0.118833
H     -0.698231   -0.634427    1.461075
H      0.314178   -1.257079   -1.348900
H     -0.050980   -2.476925   -0.122609
H      1.652372   -1.336522    1.426962
H      2.356285   -1.926202   -0.087359
H      1.500035    0.953840    0.594871
H      2.157528    1.499945   -1.445865
