21

C      2.677873   -0.327512   -0.390231
C      2.486894    0.483291    0.707351
C      1.573772   -0.848818   -1.026729
C      1.232500    0.786956    1.184997
C     -1.028172   -1.025697   -1.109660
C     -1.951523   -0.763953    0.091209
C      0.289492   -0.557120   -0.563308
C      0.109619    0.249380    0.527608
C     -1.331451    0.396251    0.798731
N     -1.866221    1.641883    0.281875
H      3.687430   -0.523730   -0.710163
H      3.359200    0.888489    1.201412
H      1.729881   -1.479150   -1.880472
H      1.049753    1.421263    2.045524
H     -0.966497   -2.096955   -1.315988
H     -1.361895   -0.433983   -1.966181
H     -2.977513   -0.542417   -0.267807
H     -1.917585   -1.676234    0.720606
H     -1.543555    0.349833    1.890744
H     -1.229230    2.437610    0.529398
H     -2.022774    1.620614   -0.748916
