18

C     -2.517944    0.552315    0.276408
C     -2.262732   -0.422447   -0.663982
C     -1.471434    1.005049    1.057304
C     -0.968374   -0.914683   -0.794611
C     -0.181441    0.514747    0.927401
C      0.072815   -0.457516   -0.010674
C      1.434312   -1.027005   -0.201991
C      2.396503    0.044661   -0.539955
Br     1.993634   -1.797425    1.479913
O      3.005057   -0.025656   -1.636254
O      2.671695    1.122943    0.273841
H     -3.520651    0.958986    0.403990
H     -3.071183   -0.785825   -1.281472
H     -1.648489    1.768281    1.800433
H     -0.748261   -1.685421   -1.532791
H      0.645550    0.872267    1.544217
H      1.423457   -1.777756   -0.987077
H      2.747485    2.054486   -0.114700
