34

C      2.173063   -2.507764   -0.333033
C     -3.222400   -0.233370    2.378280
C     -3.758997    0.662988    0.050907
C      4.015145    2.222964   -1.033952
C      1.211534   -0.294096    0.954004
C      1.306462   -1.718714   -0.954980
C     -1.300468   -0.515869   -0.908894
C     -1.739956   -0.616519    0.498672
C     -0.048752    0.240257   -1.178635
C     -2.855271   -0.087475    0.956988
C      2.759585    1.550352   -0.629135
C      1.166329   -0.257111   -0.557072
O      1.965001    2.146968    0.100418
O      2.378020    0.299627   -0.990603
H      2.252698   -3.538833   -0.633913
H      2.800868   -2.118356    0.475144
H     -3.774771   -1.206361    2.477920
H     -3.818617    0.611348    2.755321
H     -2.336296   -0.328646    3.046628
H     -3.209660    1.482990   -0.490648
H     -4.592048    1.145783    0.586604
H     -4.198582   -0.022874   -0.723767
H      4.840140    1.510194   -1.231813
H      3.823312    2.867639   -1.934848
H      4.311970    2.904146   -0.210086
H      1.171367   -1.311665    1.387711
H      2.239624    0.065771    1.308797
H      0.528704    0.440411    1.430415
H      0.695523   -2.087335   -1.741814
H     -1.266648   -1.567840   -1.290283
H     -2.184012   -0.081017   -1.464977
H     -1.130912   -1.171235    1.193945
H     -0.303222    1.307398   -0.989782
H      0.101268    0.206245   -2.303517
