22

C      2.852675    0.126611   -0.398294
C     -2.418410    0.219752   -1.289281
C      2.078906    0.149549    0.893300
C      0.704108   -0.458472    0.759917
C     -0.135097    0.279705   -0.262341
C     -1.483694   -0.418961   -0.306382
N     -2.075066   -0.290303    1.013417
H      2.824782    1.139880   -0.850010
H      2.473003   -0.657531   -1.097750
H      3.927769   -0.083026   -0.152337
H     -2.033173    0.074809   -2.320123
H     -2.558322    1.286865   -1.043430
H     -3.402537   -0.270195   -1.183098
H      1.979327    1.183174    1.285406
H      2.618485   -0.431658    1.673460
H      0.213171   -0.363099    1.747217
H      0.783684   -1.515120    0.474210
H     -0.260148    1.338031   -0.005410
H      0.369146    0.158359   -1.262516
H     -1.304108   -1.477778   -0.552284
H     -2.141619    0.729543    1.244773
H     -3.012881   -0.720134    1.054828
