30

C      4.045197   -0.188422    0.290058
C      2.233532    1.666860    0.295618
C     -2.579500   -2.042932    0.795107
C      0.365700   -0.213921   -0.838504
C      1.806699   -0.582662   -0.509732
C     -0.506079   -1.095284   -0.040389
C     -2.565917    0.328345    0.241286
C      2.653244    0.278584    0.006739
C     -2.005320   -0.965350   -0.213027
C     -2.256888    1.462402   -0.623049
O     -1.887960    1.324796   -1.796784
O     -2.375082    2.768471   -0.125985
H      4.791954    0.556554   -0.051350
H      4.243771   -1.124111   -0.256432
H      4.121732   -0.423488    1.358799
H      1.431544    1.695934    1.035463
H      1.861908    2.111057   -0.658794
H      3.082634    2.295298    0.643354
H     -3.547768   -2.347343    0.386819
H     -1.870631   -2.872871    0.826956
H     -2.639931   -1.562202    1.776020
H      0.268159    0.856017   -0.494246
H      0.254062   -0.241198   -1.923879
H      2.089119   -1.590527   -0.726146
H     -0.311038   -0.938295    1.072281
H     -0.228858   -2.187269   -0.198127
H     -2.221212    0.512862    1.310045
H     -3.684013    0.219851    0.323137
H     -2.301861   -1.264064   -1.212194
H     -2.267196    3.562907   -0.713305
