19

C      0.908048    1.634475    0.384241
C      1.439226   -0.573240   -0.678238
C     -1.567363    0.215247   -0.641323
C      0.701436    0.146248    0.433836
C     -0.743454   -0.250968    0.515208
N     -0.789449   -1.709001    0.529608
H      0.518390    2.059633    1.329151
H      2.005468    1.811214    0.389384
H      0.486073    2.106690   -0.521689
H      1.284999   -1.656592   -0.524088
H      2.537231   -0.403946   -0.472702
H      1.189685   -0.207894   -1.673939
H     -1.799055    1.316859   -0.583741
H     -2.560659   -0.282925   -0.566249
H     -1.161843   -0.046596   -1.627710
H      1.181795   -0.200477    1.383155
H     -1.160149    0.178526    1.438141
H     -1.082063   -2.084142   -0.410040
H     -1.388314   -2.053110    1.296996
