26

C      0.903178    1.380285    0.574710
C      2.162228    1.509350    0.037989
C      0.906753   -0.920887    0.144371
C      0.235559    0.174072    0.647322
C      2.821029    0.411475   -0.459988
C      2.181670   -0.806123   -0.402085
C     -2.174460   -0.186594    0.157571
C     -1.123500    0.028654    1.225817
C     -2.342138    1.006022   -0.713917
N     -1.922055   -1.386813   -0.616661
O      4.097866    0.494402   -1.013221
O      2.847732   -1.918717   -0.906042
O     -1.162006   -1.088952    2.068378
O     -2.567633    2.126355   -0.187258
O     -2.265954    0.967871   -2.087671
H      0.418834    2.251911    0.952820
H      2.650828    2.489745    0.003054
H      0.483551   -1.907044    0.149128
H     -3.149846   -0.341520    0.664238
H     -1.418591    0.890485    1.838726
H     -2.259474   -2.191868   -0.038063
H     -2.571722   -1.345688   -1.438615
H      4.530112    1.401592   -1.036714
H      2.428222   -2.837930   -0.890453
H     -1.004174   -1.909220    1.544743
H     -2.706009    1.709138   -2.619821
