30

C      2.962804    1.030232    0.811038
C      4.210355   -0.464530   -0.715347
C     -4.163466   -0.082209    0.782453
C     -2.870767    1.215370   -0.913678
C      0.572126   -0.700663    0.461451
C     -0.584969   -0.734395   -0.522513
C      1.854681   -0.946237   -0.187986
C     -1.865395   -0.810339    0.191552
N      2.976370   -0.139181   -0.027434
N     -2.935933    0.104796    0.006731
O      0.560279    0.409542    1.257983
O     -0.591380    0.337914   -1.375946
O      1.947433   -1.958032   -0.943660
O     -1.989022   -1.762524    1.015332
H      2.755095    0.725319    1.859254
H      3.951717    1.572762    0.777040
H      2.226400    1.801157    0.515048
H      4.332311   -1.566336   -0.703844
H      5.100597   -0.017252   -0.245873
H      4.164957   -0.117599   -1.769791
H     -5.035386    0.398045    0.261731
H     -4.032561    0.282772    1.810448
H     -4.371839   -1.168225    0.761521
H     -2.090176    1.957973   -0.636769
H     -2.772137    0.891783   -1.972074
H     -3.822453    1.784889   -0.876987
H      0.353533   -1.571282    1.156154
H     -0.400180   -1.650961   -1.157837
H     -0.099143    1.064613    0.922078
H     -0.343850    0.112597   -2.307015
