29

C     -1.880426    0.618161    1.105434
C     -2.073069   -0.846650   -0.836911
C      2.372200   -1.263055   -0.102661
C      0.447292    1.920669   -0.158412
C      1.451260    0.990388    0.534775
C      0.682998    0.020444   -1.454602
C     -0.421030    0.951591   -0.912233
C     -0.030194   -0.926769    0.565798
C     -1.121536   -0.029295   -0.008120
C      1.230720   -0.352590   -0.066479
O      0.106920   -0.697907    1.952680
H     -2.591719    1.364345    0.708705
H     -1.245345    1.034222    1.907984
H     -2.501578   -0.173326    1.584605
H     -1.869733   -1.942912   -0.745261
H     -1.952456   -0.625630   -1.935881
H     -3.114967   -0.628050   -0.579635
H      2.535762   -1.606404   -1.162473
H      2.109330   -2.207748    0.454949
H      3.316898   -0.825815    0.298181
H     -0.083890    2.548857    0.545162
H      1.044283    2.480447   -0.916878
H      1.135644    0.975921    1.612567
H      2.466170    1.373789    0.491791
H      1.416854    0.577556   -2.036590
H      0.247815   -0.842437   -1.958712
H     -1.029028    1.376183   -1.693969
H     -0.187406   -1.976670    0.326010
H     -0.461771   -1.287316    2.480177
