28

C     -1.990882   -1.992168   -1.349915
C     -4.299362    1.754059    0.487853
C      4.486338    0.681598   -0.096408
C      4.246253   -0.679747    0.059078
C      3.459039    1.578219   -0.061766
C      2.953438   -1.086380    0.246695
C      2.169063    1.152969    0.127272
C     -1.708811   -0.977859   -0.258831
C     -3.410221    0.562902    0.621497
C      1.897836   -0.186249    0.284282
C     -0.314511   -0.501749   -0.436596
N      0.579082   -0.648714    0.480135
O     -3.416981   -0.120627    1.685804
O      0.024638    0.117095   -1.626614
O     -2.558337    0.156813   -0.381269
H     -2.098502   -1.427536   -2.295986
H     -1.126610   -2.686093   -1.384770
H     -2.933098   -2.535158   -1.128890
H     -4.949357    1.550278   -0.391874
H     -3.686693    2.657526    0.308286
H     -4.920668    1.850616    1.378354
H      5.516665    0.987277   -0.244201
H      5.096735   -1.361657    0.024709
H      3.707702    2.632499   -0.189422
H      2.747725   -2.134988    0.368861
H      1.372294    1.890543    0.150191
H     -1.819809   -1.474731    0.717482
H      0.977033    0.241265   -1.892010
