27

C      3.608905    0.121349   -0.613977
C     -3.089027   -0.595351   -0.927512
C      2.847155   -0.852516    0.238031
C      1.359406   -0.816193   -0.061165
C      0.800063    0.580041    0.206150
C     -2.450450   -0.997035    0.331233
C     -0.683267    0.561137   -0.107308
C     -1.235260    1.902029    0.146325
N     -1.345103   -0.451175    0.686779
O     -3.062450   -1.964233    1.111233
O     -0.776549    2.888734   -0.457407
O     -2.257708    2.075080    1.048296
H      3.189125    0.156172   -1.626080
H      4.658638   -0.213654   -0.669855
H      3.609068    1.147524   -0.159979
H     -4.039909   -1.084229   -1.130879
H     -2.394138   -0.879323   -1.760162
H     -3.245064    0.501040   -0.997893
H      3.210675   -1.879357    0.064377
H      2.968190   -0.570206    1.322453
H      0.839205   -1.526484    0.585472
H      1.176183   -1.100426   -1.115109
H      1.308684    1.336379   -0.418907
H      0.965242    0.834925    1.265203
H     -0.803273    0.254501   -1.170059
H     -2.570153   -2.381495    1.908832
H     -2.588187    2.952766    1.391762
