31

C     -1.992071    0.224850   -1.468076
C     -2.190179    0.761282    0.900320
C     -1.676927   -1.526833    0.198077
C      2.172697   -0.519215   -0.993208
C      2.557917    0.783078   -0.351427
C      0.678384   -0.566911   -1.228568
C      2.031543    0.883913    1.076524
C      0.032739    0.278044   -0.146862
C      0.783964    0.021094    1.128667
C     -1.413915   -0.084173   -0.085783
O      0.072514    0.303305    2.268505
H     -3.086571    0.266993   -1.460463
H     -1.532750    1.183372   -1.785081
H     -1.583900   -0.555258   -2.140616
H     -2.411584    0.201463    1.826097
H     -3.175338    1.073681    0.479975
H     -1.629481    1.700874    1.149965
H     -1.773296   -2.143305   -0.720837
H     -2.671236   -1.604160    0.722951
H     -0.946861   -1.974571    0.900402
H      2.524117   -1.380114   -0.392928
H      2.669683   -0.567930   -1.974936
H      2.175338    1.603103   -0.992505
H      3.659824    0.866011   -0.325051
H      0.444000   -0.065416   -2.199127
H      0.330011   -1.611608   -1.186564
H      1.688951    1.939215    1.193631
H      2.776290    0.591136    1.823793
H      0.121915    1.339979   -0.399980
H      1.130774   -1.046552    1.184140
H      0.233448   -0.375347    2.998964
