38

C      3.878706   -2.092922   -0.433058
C     -3.128564   -3.320896    0.567791
C     -1.025978    4.961681   -0.381943
C      1.338242    1.349934   -0.985136
C      3.032739   -0.868666   -0.143040
C     -1.630606   -3.480591    0.677554
C     -1.555547    3.729501    0.324476
C      1.590387   -1.083373   -0.514243
C      0.810953    0.160307   -0.196789
C     -0.663308    0.063652   -0.389553
C     -1.265688   -1.078537    0.322097
C     -1.269247    1.310386    0.198424
O     -2.030191   -0.887313    1.298430
O     -2.106760    1.257712    1.158391
O     -1.028046   -2.395575   -0.037162
O     -0.976629    2.587360   -0.241349
H      3.727956   -2.887683    0.332513
H      4.942498   -1.772534   -0.340738
H      3.740073   -2.471751   -1.462407
H     -3.334278   -2.936240   -0.470288
H     -3.560089   -2.654563    1.319232
H     -3.644128   -4.310196    0.693498
H     -1.714115    5.816035   -0.176135
H     -0.998104    4.778983   -1.466056
H     -0.030523    5.250193   -0.027038
H      2.153439    1.015030   -1.671446
H      0.544100    1.706358   -1.683947
H      1.609234    2.203790   -0.349080
H      3.480927   -0.045831   -0.702312
H      3.064198   -0.713364    0.961173
H     -1.362706   -3.447267    1.750419
H     -1.368760   -4.432158    0.193043
H     -2.656589    3.703298    0.333728
H     -1.246709    3.821565    1.400627
H      1.180289   -1.924050    0.093592
H      1.482485   -1.383224   -1.571189
H      0.975009    0.448029    0.891516
H     -0.954671    0.022920   -1.465478
