14

C      0.510943   -0.599190    0.676401
C     -0.472583    0.261264   -0.124835
C      1.809519   -0.610210   -0.045413
C     -1.777680    0.288721    0.571572
Br    -0.713795   -0.529430   -1.851029
O      1.995018   -1.367694   -1.030632
O      2.836689    0.242784    0.389476
O     -1.970061   -0.332553    1.642278
O     -2.825591    1.015239    0.039809
H      0.615403   -0.194545    1.687827
H      0.108634   -1.630094    0.733533
H     -0.059400    1.291110   -0.228022
H      3.443420    0.670565   -0.324013
H     -3.500516    1.494031    0.627184
