31

C     -2.188157   -1.338724    0.276751
C     -2.127359    0.391129   -1.424918
C     -1.906585    0.989746    0.921780
C      2.046852    0.769566   -1.087392
C      2.829866    0.106012    0.000120
C      0.626912    1.131304   -0.641465
C      1.996643   -0.136601    1.217471
C     -0.031996   -0.176624   -0.265039
C      0.661752   -0.781635    0.905141
C     -1.518290   -0.045885   -0.097929
O      0.934478   -2.146672    0.681574
H     -2.039982   -2.140708   -0.468355
H     -1.938173   -1.673341    1.312118
H     -3.287491   -1.136904    0.290792
H     -1.891287    1.442559   -1.592542
H     -1.593995   -0.206591   -2.211098
H     -3.211990    0.167427   -1.438590
H     -2.360998    1.904555    0.449833
H     -2.684148    0.602238    1.637064
H     -1.068192    1.330206    1.548787
H      2.553821    1.639780   -1.538051
H      1.915257    0.027195   -1.926965
H      3.679391    0.754149    0.298294
H      3.269142   -0.866699   -0.333448
H      0.670797    1.844598    0.189244
H      0.145773    1.568511   -1.551968
H      1.873512    0.769871    1.855301
H      2.557437   -0.883737    1.852814
H      0.139879   -0.854283   -1.142963
H      0.071286   -0.750088    1.841960
H      1.875842   -2.300353    0.441678
