38

C      4.121546   -2.449255    0.627413
C     -4.052643   -1.450910    0.319198
C     -0.555159    4.897980   -1.100288
C      0.207866   -1.619814   -0.980072
C      2.637475   -2.348670    0.466437
C     -3.498565   -0.829940    1.564373
C      0.190331    3.618432   -1.497142
C      2.135047   -0.920795    0.474887
C      0.644085   -0.964561    0.306621
C      0.001533    0.381232    0.510134
C     -1.491137    0.183263    0.548862
C      0.371427    1.348852   -0.544608
O     -2.190522    0.769089   -0.308243
O      1.139343    0.998097   -1.471074
O     -2.103024   -0.607436    1.479924
O     -0.110509    2.644061   -0.538824
H      4.629057   -2.835430   -0.290308
H      4.373123   -3.199459    1.431716
H      4.621184   -1.516098    0.898560
H     -3.967591   -0.735486   -0.511659
H     -5.109902   -1.705958    0.493208
H     -3.451203   -2.382484    0.119477
H     -0.383071    5.658526   -1.886059
H     -1.639965    4.654809   -0.991857
H     -0.199546    5.265080   -0.112969
H      0.937997   -1.393466   -1.782547
H      0.026339   -2.688059   -0.865684
H     -0.769929   -1.157481   -1.272603
H      2.072057   -2.887595    1.263506
H      2.373165   -2.864620   -0.488955
H     -3.637080   -1.527272    2.438619
H     -4.060868    0.122867    1.742076
H     -0.138927    3.331256   -2.500191
H      1.279243    3.881809   -1.448860
H      2.657629   -0.280804   -0.241839
H      2.336094   -0.524822    1.493050
H      0.258784   -1.614411    1.146759
H      0.346317    0.749478    1.508958
