55

C     -7.701415    1.522902    1.587362
C      7.213665   -0.974475   -2.315298
C     -5.385382   -1.342862   -2.573176
C      6.100652    0.182336    2.922556
C     -3.519186    1.505239    1.131253
C      3.242275   -0.477378   -1.290168
C     -4.893550    1.507631    1.276634
C      4.563072   -0.636165   -1.599305
C     -3.690595    0.111169   -0.759104
C      3.880028   -0.056161    0.983571
C     -0.188544   -0.513861    1.711862
C      0.138386    0.473232   -1.616414
C     -2.890661    0.812022    0.117479
C      2.902485   -0.185065    0.013114
C     -0.777743   -0.490143    0.332007
C     -5.697201    0.807642    0.401555
C      5.555426   -0.513176   -0.652538
C     -5.069132    0.114933   -0.611451
C      5.219683   -0.221627    0.648565
C     -1.396829    0.824124   -0.022099
C      1.504007    0.001778    0.432430
C      0.488440   -0.484768   -0.535491
O      0.680292   -1.779932   -0.962991
O     -7.085553    0.803693    0.539561
O      6.890043   -0.675127   -0.972091
O     -5.890264   -0.587353   -1.487627
O      6.247387   -0.106697    1.568381
O      1.180577   -0.645171    1.598711
O     -1.095243    1.019486   -1.361549
H     -8.763057    1.203514    1.608026
H     -7.198007    1.403156    2.559800
H     -7.718170    2.608323    1.323924
H      8.269158   -1.292252   -2.432049
H      6.589247   -1.852201   -2.644557
H      6.960199   -0.139812   -2.971774
H     -4.634067   -0.720095   -3.117758
H     -4.871622   -2.261151   -2.267058
H     -6.210712   -1.605698   -3.246053
H      6.873775   -0.433410    3.469892
H      6.321393    1.265333    3.147921
H      5.141365   -0.078118    3.366836
H     -2.867086    2.053515    1.814088
H      2.442607   -0.573922   -2.040546
H     -5.328047    2.077222    2.101714
H      4.803438   -0.867806   -2.641978
H     -3.220094   -0.441154   -1.563596
H      3.630570    0.174905    2.021637
H     -0.564449   -1.451617    2.213218
H     -0.494841    0.366562    2.329538
H      0.907243    1.254310   -1.802071
H      0.062605   -0.107929   -2.572428
H     -1.412694   -1.353970    0.103531
H     -0.946457    1.633400    0.574406
H      1.336167    1.101449    0.575883
H      0.366418   -1.958778   -1.882301
