20

C     -2.048037    1.155352   -0.088048
C      2.463520    0.094775   -0.411264
C     -1.025047   -1.056272   -0.020609
C      0.469521   -1.363531   -0.091007
C     -1.030253    0.299754    0.622308
C      0.977676    0.036488   -0.463139
N      0.309434    0.839675    0.504938
H     -1.934020    2.228569    0.104982
H     -3.049699    0.810411    0.254781
H     -1.950698    0.935918   -1.175214
H      2.873811   -0.255443    0.556413
H      2.857968   -0.613527   -1.178986
H      2.788904    1.110207   -0.663633
H     -1.591930   -1.819468    0.509381
H     -1.354898   -0.943572   -1.074200
H      0.865720   -1.671604    0.889605
H      0.716413   -2.083883   -0.874186
H     -1.282316    0.202088    1.695319
H      0.633513    0.245823   -1.488689
H      0.310420    1.848237    0.305899
