22

C     -3.146673    0.257079    0.003634
C      3.287404   -0.067346   -0.230317
C      2.718391    1.111730    0.175221
C      2.537501   -1.240858   -0.339412
C      1.360432    1.102016    0.476793
C      1.196002   -1.209689   -0.031874
C     -0.833737   -0.028732    0.700955
C     -1.707401    0.284458   -0.481219
C      0.597626   -0.037220    0.378674
O     -1.610816   -0.727962   -1.462486
H     -3.823336    0.551894   -0.797257
H     -3.273523    0.805639    0.950262
H     -3.362710   -0.826974    0.226719
H      4.343250   -0.062442   -0.465438
H      3.267289    2.045955    0.272829
H      3.023250   -2.151217   -0.662928
H      0.850325    2.001984    0.803293
H      0.610123   -2.116378   -0.114698
H     -1.145764   -1.010415    1.096277
H     -1.055326    0.724425    1.482025
H     -1.457354    1.253107   -0.954279
H     -2.374952   -0.659055   -2.086734
