17

C      0.595526    0.110471   -0.888166
C      1.463188   -0.839175   -0.090373
C     -1.432778   -0.524510    0.456309
C     -0.538074    0.575743   -0.040233
O      1.947953   -0.167095    1.023457
O     -2.459676    0.068908    1.224872
O     -1.304096    1.454774   -0.822930
H      1.189694    1.011714   -1.165495
H      0.274934   -0.338050   -1.851393
H      0.883607   -1.717233    0.252404
H      2.299940   -1.226630   -0.731515
H     -0.929048   -1.277297    1.057942
H     -1.928751   -1.024191   -0.397931
H     -0.120501    1.132209    0.820808
H      2.875561    0.140734    0.927244
H     -2.065259    0.790837    1.782947
H     -0.752221    1.828791   -1.557947
