55

C      7.312999    0.030595   -2.078424
C     -7.616836   -1.278114   -1.294187
C      5.061207    2.243888    2.535811
C     -5.040292    3.070619    0.944050
C      3.466162   -1.000229   -0.875807
C     -3.447763   -1.525797   -0.221422
C      4.742689   -0.651781   -1.265982
C     -4.795069   -1.484890   -0.581809
C      3.654396    0.422819    0.970766
C     -3.554778    0.697125    0.526881
C     -0.220980   -2.422812    0.658900
C      0.444140    0.895084   -0.117354
C      2.882495   -0.487621    0.235293
C     -2.808033   -0.447808    0.333826
C      0.580564   -1.424197   -0.135382
C      5.490114    0.243209   -0.535261
C     -5.534476   -0.338952   -0.386355
C      4.919182    0.785197    0.607985
C     -4.892510    0.746261    0.172022
C      1.553409   -0.767178    0.754171
C     -1.385438   -0.491017    0.713957
C     -0.430334   -0.336625   -0.399322
O     -0.939662   -0.318701   -1.658186
O      6.758802    0.594535   -0.916089
O     -6.875760   -0.243366   -0.725916
O      5.667476    1.698556    1.363654
O     -5.637345    1.909554    0.371988
O     -1.086323   -1.666686    1.386847
O      0.992425    0.479661    1.120097
H      7.289158   -1.078920   -2.075643
H      8.390343    0.327578   -2.161680
H      6.734988    0.415623   -2.952735
H     -7.227657   -1.628317   -2.264059
H     -8.642420   -0.885687   -1.489759
H     -7.747966   -2.149569   -0.596186
H      4.775201    1.368370    3.186862
H      5.749705    2.866139    3.103284
H      4.109261    2.746325    2.285420
H     -4.859550    2.898575    2.024691
H     -4.054600    3.288584    0.455850
H     -5.680611    3.954330    0.811249
H      2.927719   -1.693833   -1.468766
H     -2.885180   -2.423825   -0.379383
H      5.193838   -1.079450   -2.168487
H     -5.276290   -2.351629   -1.019023
H      3.254156    0.883434    1.884166
H     -3.076202    1.575039    0.967384
H     -0.669487   -3.211641    0.028714
H      0.510494   -2.941448    1.319224
H     -0.147665    1.804054   -0.016555
H      1.236341    0.943827   -0.876574
H      0.961688   -1.894632   -1.050636
H      1.693221   -1.377079    1.695456
H     -1.233470    0.321392    1.491260
H     -0.585473    0.391430   -2.238824
