19

C      0.185035    0.625048   -0.009713
C     -1.298865    0.712302   -0.155347
C     -2.026019   -0.233079    0.710159
C      2.131883   -0.841431   -0.220104
N     -1.697980    2.069674    0.169905
N      2.892850    0.204050   -0.348688
N      0.724553   -0.673503   -0.332765
O     -2.846655    0.183626    1.568526
O     -1.841431   -1.602401    0.618886
O      2.728376   -2.073197    0.021202
H      0.460635    0.920805    1.010226
H      0.635472    1.351830   -0.722695
H     -1.604521    0.516007   -1.201774
H     -1.007522    2.519900    0.838956
H     -2.621494    2.083473    0.695651
H      3.915309    0.134286   -0.275548
H      0.166612   -1.492087   -0.640081
H     -2.643974   -2.236343    0.696023
H      3.747736   -2.168960    0.102019
