19

C     -0.091574   -0.639755    0.722871
C     -0.909432   -0.378676   -0.489317
C     -1.530580    0.960953   -0.499895
C      2.191579    0.268784    0.239659
N     -1.994982   -1.348845   -0.452399
N      2.184443   -0.251221   -0.917751
N      0.998169    0.192563    0.993079
O     -0.851517    2.020094   -0.525898
O     -2.904424    1.077210   -0.481050
O      3.302456    0.891002    0.771412
H     -0.775765   -0.690841    1.591382
H      0.298774   -1.697478    0.619187
H     -0.380603   -0.598824   -1.444914
H     -1.597301   -2.289748   -0.236554
H     -2.625394   -1.045708    0.324963
H      3.012408   -0.249926   -1.555357
H      0.914404    0.827791    1.848122
H     -3.368894    1.955995   -0.715628
H      4.128232    0.996630    0.208089
