48

C     -3.627105   -2.302361    0.866228
C      5.272513   -2.657442   -0.212794
C     -0.517508    5.340308   -0.216075
C      3.552859    0.776535    1.473388
C      1.076115   -3.011184   -0.407340
C      2.442805   -2.912349   -0.346142
C     -3.632523    1.104477   -0.319659
C     -4.033828   -0.023425    0.592889
C     -1.153156   -2.141546   -0.372423
C     -1.700409    2.660450   -0.244915
C      0.287752   -1.871764   -0.316105
C     -2.203077    1.392432   -0.255970
C     -2.029881   -0.993633   -0.237126
C      3.037767   -1.685504   -0.188562
C     -0.351369    2.885846   -0.173371
C     -1.341115    0.318344   -0.192070
C      0.909647   -0.631449   -0.162690
C      0.027067    0.532908   -0.115245
C      0.535056    1.799317   -0.109434
C      2.248639   -0.516419   -0.088871
N     -2.993849   -0.998406    0.832628
O      1.838654    2.111700   -0.062817
O      4.399221   -1.549967   -0.122981
O      0.203800    4.151060   -0.159937
O      3.008323    0.608809    0.093821
H     -3.138247   -3.011676    1.541258
H     -3.593545   -2.778887   -0.155615
H     -4.732435   -2.217828    1.083058
H      5.216329   -3.191790    0.766302
H      6.305242   -2.333858   -0.447670
H      4.964121   -3.326687   -1.053158
H     -1.033891    5.461368    0.777312
H     -1.224313    5.407332   -1.051413
H      0.210866    6.181885   -0.270588
H      4.238228   -0.047546    1.670224
H      2.684280    0.820177    2.147096
H      4.038628    1.756368    1.457434
H      0.646377   -3.994477   -0.527355
H      3.044908   -3.810757   -0.424103
H     -3.895046    0.890476   -1.387302
H     -4.234829    1.994133   -0.038068
H     -4.894620   -0.527148    0.110544
H     -4.383755    0.354642    1.575304
H     -1.308601   -2.694531   -1.352122
H     -1.350290   -2.969232    0.382840
H     -2.364654    3.513149   -0.292551
H     -2.667598   -0.931258   -1.182039
H      2.216446    3.069405   -0.074545
