18

C     -2.295871   -0.182025    0.736747
C     -1.208773    0.391021   -0.153982
C      0.118141   -0.132062    0.346528
C      1.221650    0.421300   -0.520915
C      2.578677   -0.076917   -0.056705
F      0.194198   -1.492531    0.324570
F      0.271826    0.313785    1.641701
F      0.974055    0.030898   -1.821674
F      1.184540    1.796243   -0.398623
F      2.794667    0.319498    1.231532
F      2.633959   -1.453821   -0.216876
F      3.558558    0.452488   -0.869467
O     -1.417093    0.008185   -1.496718
H     -1.892043   -0.898272    1.485370
H     -3.044018   -0.698958    0.086567
H     -2.783231    0.629328    1.339083
H     -1.184903    1.498682   -0.094740
H     -1.704341   -0.926841   -1.562399
