31

C      2.509582    0.927637   -0.863978
C      2.969473   -0.724114    0.903564
C     -3.423360    0.646735    0.456702
C     -1.630110   -0.488035   -0.870867
C     -0.150875   -0.321016   -1.237783
C      0.313907    0.463043    1.086005
C      2.143960   -0.415816   -0.311950
C     -1.939643    0.579586    0.181721
C      0.681127   -0.536506    0.008788
C     -1.157959    0.196739    1.415129
O     -1.304902   -1.177936    1.583533
H      2.008569    1.053249   -1.863614
H      3.623327    0.928213   -0.998300
H      2.253719    1.711688   -0.149764
H      2.345994   -1.150083    1.720327
H      3.491620    0.188599    1.303848
H      3.751008   -1.509970    0.688035
H     -3.978589    0.131986   -0.342962
H     -3.679635    0.093729    1.405003
H     -3.764636    1.681729    0.534269
H     -2.243800   -0.301800   -1.753849
H     -1.749192   -1.502902   -0.478975
H      0.015135    0.678433   -1.665092
H      0.082687   -1.143025   -1.937297
H      0.945155    0.313322    1.959218
H      0.410327    1.519110    0.697122
H      2.376105   -1.197476   -1.072290
H     -1.573868    1.547582   -0.219484
H      0.413183   -1.541562    0.391463
H     -1.476696    0.754384    2.315173
H     -2.261614   -1.405521    1.596713
