25

C     -4.593780   -0.177416    0.155387
C     -3.296983   -0.741781   -0.375237
C     -2.169656    0.167239    0.088816
C      3.965617    0.582079   -0.407048
C      1.555439   -0.081025   -0.527834
C      2.551631    0.922895    0.014978
C     -0.883819   -0.355827   -0.413211
O      4.296118   -0.677453    0.116227
O      2.489280    0.948557    1.406159
O     -0.832283   -1.378397   -1.095570
O      0.275912    0.319798   -0.107375
H     -4.375653    0.405856    1.057304
H     -5.078054    0.417255   -0.648287
H     -5.245002   -1.047177    0.448383
H     -3.110692   -1.763129    0.005423
H     -3.322151   -0.780736   -1.480579
H     -2.200689    0.127846    1.213844
H     -2.341567    1.209558   -0.183818
H      4.671700    1.326941   -0.018570
H      3.987930    0.586273   -1.513936
H      1.659264   -0.253289   -1.593984
H      1.760912   -1.058759    0.000761
H      2.323495    1.944615   -0.351625
H      5.270758   -0.663800    0.291164
H      2.642270    0.019878    1.710659
