25

C     -1.212670    1.103791    1.826810
C      3.104838   -0.356403    0.088713
C      2.289431   -1.407356    0.461279
C      2.587131    0.827501   -0.392362
C      0.933315   -1.234722    0.336414
C      1.226571    1.007317   -0.520217
C      0.411155   -0.030101   -0.152870
C     -1.463235   -1.293162   -0.859152
C     -1.065976    0.025819   -0.238719
C     -1.621335    1.089007   -1.106262
F     -1.213824    0.982826   -2.426562
F     -1.441698    2.370637   -0.631703
F     -3.010497    0.893081   -1.137695
O     -1.074861   -1.511098   -2.021597
O     -2.215793   -2.204276   -0.171456
O     -1.594580    0.059403    1.034817
H     -0.115009    1.159823    1.991061
H     -1.611917    0.871455    2.865700
H     -1.661075    2.082897    1.589718
H      4.171151   -0.484632    0.183971
H      2.724372   -2.339375    0.841157
H      3.220852    1.643759   -0.681696
H      0.280868   -2.055754    0.626814
H      0.776413    1.907332   -0.888997
H     -2.423627   -3.107772   -0.617164
