24

C      3.179100    0.014006   -0.279507
C     -3.334894   -0.948323    0.027078
C      2.576382    0.810105    0.857442
C      1.224555    0.238485    1.193236
C      0.272291    0.292579    0.014157
C     -1.039753   -0.320575    0.520408
C     -2.086649   -0.327921   -0.568480
O     -2.428227    0.963253   -0.962507
H      3.063053    0.570726   -1.246807
H      2.663758   -0.944590   -0.350024
H      4.274624   -0.150916   -0.098559
H     -4.227848   -0.682220   -0.557663
H     -3.161859   -2.042019    0.084060
H     -3.430065   -0.563555    1.063508
H      2.543505    1.896885    0.646859
H      3.217600    0.669181    1.752005
H      1.360963   -0.824764    1.450014
H      0.745399    0.738820    2.041293
H      0.128784    1.327698   -0.313528
H      0.689778   -0.335088   -0.796391
H     -0.794495   -1.339332    0.862819
H     -1.431822    0.260074    1.371021
H     -1.702088   -0.929953   -1.434251
H     -2.302092    1.627443   -0.254125
