25

C     -1.893468   -1.259777    1.020862
C     -1.510324    0.163640    1.217723
C      3.251600   -0.715692   -0.293434
C      3.006098    0.572919    0.099375
C      2.162922   -1.508671   -0.564737
C      1.720467    1.043347    0.214270
C      0.862642   -1.043225   -0.451759
C     -1.524469    0.781530   -1.214189
C     -0.751033    0.790237    0.075045
C      0.620709    0.259896   -0.054325
O     -2.699932    1.495326   -1.033290
H     -2.805897   -1.441033    1.663775
H     -2.238396   -1.507078   -0.007922
H     -1.132487   -1.986911    1.384522
H     -0.837273    0.220290    2.109268
H     -2.406068    0.777598    1.436323
H      4.265427   -1.068106   -0.378275
H      3.809285    1.271868    0.334757
H      2.355101   -2.526161   -0.874952
H      1.527398    2.072039    0.527929
H      0.051404   -1.714082   -0.679804
H     -1.724871   -0.250433   -1.570269
H     -0.896618    1.287487   -1.975026
H     -0.653854    1.878869    0.363124
H     -2.558363    2.406122   -1.348991
