48

C     -3.099674   -1.167144   -2.580582
C      3.946844   -2.039060   -3.701091
C      4.946875    1.047248    0.799803
C     -1.755783    2.649994    4.639423
C     -3.714010   -0.138744    0.835140
C     -3.900177   -0.038132   -0.638337
C     -0.547110   -1.289032   -1.625326
C     -2.189331    1.093063    2.373766
C      1.852369   -1.260506   -2.074693
C      2.332952    0.292996    0.195475
C     -2.387955    0.331152    1.263184
C      0.792817   -0.858938   -1.239707
C      1.058822   -0.081051   -0.108171
C     -1.624651   -0.882749   -0.726566
C      3.122841   -0.869899   -1.744964
C      3.380240   -0.111034   -0.640876
C     -0.905028    1.477930    2.681815
C     -1.315821   -0.059315    0.443410
C     -0.048661    0.341138    0.778432
C      0.180250    1.110892    1.894420
N     -2.767526   -0.311086   -1.452700
O      1.414519    1.539544    2.279426
O      4.176961   -1.261528   -2.563482
O      4.668466    0.261973   -0.342018
O     -0.697656    2.254138    3.812399
H     -2.899318   -0.597475   -3.504015
H     -4.182024   -1.434770   -2.535238
H     -2.493536   -2.081554   -2.521260
H      3.320756   -2.940704   -3.459349
H      3.332238   -1.424194   -4.412095
H      4.898126   -2.366055   -4.154681
H      4.630812    0.536980    1.732404
H      6.056182    1.194410    0.842970
H      4.490737    2.047279    0.714664
H     -2.522352    3.218934    4.050273
H     -1.373815    3.313811    5.441534
H     -2.225314    1.745350    5.097980
H     -3.948226   -1.164891    1.192890
H     -4.488896    0.532540    1.310453
H     -4.700856   -0.774784   -0.924868
H     -4.323692    0.953625   -0.903600
H     -0.759288   -1.025379   -2.717190
H     -0.486921   -2.423913   -1.691490
H     -3.029241    1.394158    3.008265
H      1.638455   -1.860763   -2.945442
H      2.591062    0.878597    1.034879
H     -2.070615   -1.848892   -0.291869
H      1.625153    2.095835    3.076604
