27

C      3.968480    0.194807    0.350748
C      2.708666    0.148610    1.152567
C     -3.061425    1.758025   -0.700838
C     -3.478889    1.262639    0.520723
C     -1.978390    1.177522   -1.278693
C     -2.815326    0.219160    1.120111
C     -1.259077    0.111555   -0.717324
C     -1.696608   -0.360567    0.493940
C     -0.087042   -0.399722   -1.413767
C      1.143112   -0.553974   -0.608908
N     -1.077941   -1.437134    1.170186
O     -0.340510   -1.529381   -2.202131
O      1.880848   -1.555636   -0.875753
O     -1.067340   -1.436382    2.535454
O     -0.584253   -2.372945    0.552552
O      1.534309    0.292184    0.384947
H      4.335860    1.230340    0.184714
H      4.758049   -0.362800    0.900663
H      3.814364   -0.309634   -0.617243
H      2.720045    0.865291    2.013970
H      2.670646   -0.864486    1.624917
H     -3.587878    2.587627   -1.180984
H     -4.348035    1.706968    1.013427
H     -1.640162    1.565818   -2.250257
H     -3.137505   -0.176677    2.080922
H      0.216922    0.401524   -2.184304
H      0.409082   -2.162733   -2.069640
