45

C     -2.976091    1.587831    0.132210
C     -2.612161   -0.475198    1.355216
C      0.177958   -1.627631    0.582678
C      2.732348   -0.247965    1.499262
C     -1.773577   -1.473448   -1.658875
C     -0.286288    1.464213    1.144201
C      2.545802   -0.536047   -1.252416
C     -2.696058   -0.441796   -1.129313
C     -0.333162   -1.059499   -1.718309
C      1.157564    1.663682    1.289461
C      3.705787    0.367471   -0.844901
C     -0.776751    0.627285    0.012900
C      1.433415    0.175747   -0.623727
C     -2.208267    0.247038    0.124513
C      0.155237   -0.500702   -0.374607
C      2.080783    0.739933    0.604193
O      3.145250    1.399007   -0.064906
H     -4.061816    1.397199    0.016631
H     -2.789899    2.145606    1.054582
H     -2.547177    2.175605   -0.708297
H     -1.843681   -0.646562    2.103112
H     -3.465724    0.023326    1.907022
H     -3.067624   -1.458831    1.032472
H      0.878447   -2.402172    0.154503
H      0.380726   -1.397039    1.620975
H     -0.824680   -2.145753    0.534688
H      3.810241    0.009652    1.726507
H      2.734398   -1.279183    1.173565
H      2.237964   -0.172613    2.512909
H     -2.075971   -1.668076   -2.730848
H     -1.890808   -2.481886   -1.169992
H     -0.770905    2.482127    1.023080
H     -0.754450    1.071926    2.073848
H      2.703670   -1.582459   -0.951780
H      2.411738   -0.545158   -2.361686
H     -2.895334    0.312106   -1.929570
H     -3.665437   -0.916854   -0.894486
H     -0.186771   -0.268506   -2.458652
H      0.278267   -1.962113   -1.942685
H      1.411027    1.629510    2.393349
H      1.470375    2.714102    1.002939
H      4.490071   -0.177456   -0.301685
H      4.077143    0.865817   -1.765052
H     -0.735024    1.299256   -0.904583
H      1.219445    1.068508   -1.288447
