23

C     -3.228291    0.571847   -0.336668
C      0.385951   -0.042541   -0.809607
C     -0.445331   -0.074265    0.452915
C      1.764548    0.539273   -0.561980
C      2.529419   -0.247115    0.439625
N      1.641041    1.910897   -0.174710
O      2.957323    0.352417    1.458186
O      2.784949   -1.585816    0.299927
O     -1.960685   -1.723352   -1.384157
O     -2.588168   -1.615975    1.169956
P     -2.053051   -0.784931    0.021682
H     -4.153685    0.080825   -0.697947
H     -3.396819    1.143125    0.581890
H     -2.817614    1.193728   -1.143685
H     -0.108802    0.583205   -1.559174
H      0.442040   -1.076648   -1.198204
H     -0.581302    0.964184    0.831872
H      0.092854   -0.640497    1.218174
H      2.318634    0.427915   -1.529463
H      1.923591    2.019024    0.821162
H      2.235836    2.504003   -0.792561
H      3.547124   -2.072694    0.757257
H     -1.289561   -2.426611   -1.305498
