11

C      0.834434   -0.417643    0.405940
C     -1.571362    0.270553    0.029945
C     -0.205091    0.084497   -0.533614
O      1.949195    0.447035    0.396601
O     -0.785733    1.309293   -0.392810
H      1.154405   -1.462562    0.181452
H      0.401818   -0.457805    1.424912
H     -1.706794    0.199850    1.119157
H     -2.400800   -0.125704   -0.577238
H     -0.069664   -0.239820   -1.582792
H      2.399592    0.392306   -0.471553
