25

C     -3.131821    0.061584   -0.615071
C      3.040687   -1.254515    0.881959
C      1.905151   -1.973591    1.203270
C      0.413274    2.078649   -1.215611
C      2.959351   -0.053812    0.190605
C      1.656242    1.610515   -0.856188
C      0.669506   -1.499190    0.835426
C     -0.726763    1.376881   -0.905207
C     -1.944321   -0.539696    0.099382
C      1.699188    0.403272   -0.168308
C     -0.688368    0.168361   -0.217788
C      0.553198   -0.298203    0.141775
O     -2.233482   -0.446828    1.486355
H     -2.951244    0.257482   -1.674298
H     -3.409102    1.036614   -0.135320
H     -4.022141   -0.581105   -0.510994
H      3.999158   -1.647680    1.182669
H      1.956022   -2.902517    1.740225
H      0.367841    3.021583   -1.750265
H      3.843902    0.511235   -0.061099
H      2.556795    2.166671   -1.103447
H     -0.242447   -2.031576    1.068150
H     -1.682501    1.756599   -1.190963
H     -1.885046   -1.626275   -0.105093
H     -2.703081    0.405542    1.679834
