21

C      2.910917    0.540059    0.251739
C      2.198728   -0.058581   -0.765640
C      2.223163    0.842677    1.427314
C      0.851109   -0.346307   -0.620128
C      0.890105    0.551072    1.554110
C     -1.888099   -1.469077   -0.038714
C      0.169426   -0.048627    0.539478
C     -1.276465   -0.354513    0.701020
C     -2.222995   -0.047784   -0.445217
N     -1.588095    0.540200   -1.592068
H      3.963004    0.758412    0.122788
H      2.726524   -0.295587   -1.679534
H      2.780261    1.311208    2.223812
H      0.361311   -0.813500   -1.454720
H      0.348930    0.789389    2.479619
H     -2.673064   -2.061134    0.484183
H     -1.361095   -2.041711   -0.806753
H     -1.697338   -0.078001    1.686416
H     -3.266472    0.249466   -0.217640
H     -1.272761    1.530729   -1.397709
H     -2.177092    0.501608   -2.452356
