52

C     -2.611206   -3.371595   -0.557669
C      4.365516   -3.834290    0.270024
C      4.727820    1.610463   -0.637009
C     -2.589309    4.796323   -0.817144
C      1.491260    3.527050    0.626958
C     -3.904625    0.017274    0.162844
C     -3.858196   -1.411601   -0.261674
C     -0.360200   -2.241613    0.455065
C     -2.561471    2.046214   -0.270296
C      2.055687   -2.308360    0.248049
C      2.230066    0.400631   -0.202023
C     -2.624681    0.711854   -0.002478
C      0.900768   -1.539702    0.237321
C      1.006349   -0.168400    0.009255
C     -1.575076   -1.420961    0.431204
C      3.275653   -1.715249    0.035571
C      3.409926   -0.375437   -0.191795
C     -1.362894    2.704274   -0.430084
C     -1.420971    0.006909    0.107088
C     -0.209016    0.664499   -0.057062
C     -0.161893    1.997337   -0.318166
N     -2.554961   -1.932452   -0.549997
O      4.480363   -2.443996    0.036160
O      4.651724    0.226073   -0.407995
O     -1.392584    4.061552   -0.699599
O      0.963086    2.751002   -0.483132
H     -3.677999   -3.662963   -0.725012
H     -1.981567   -3.785295   -1.376007
H     -2.279565   -3.780879    0.415061
H      3.812911   -3.926247    1.250867
H      5.357318   -4.276213    0.357782
H      3.749089   -4.248000   -0.552714
H      5.788144    1.911812   -0.748347
H      4.319070    2.208074    0.211245
H      4.122097    1.848012   -1.554702
H     -2.287389    5.816551   -1.188643
H     -2.956924    4.966240    0.233353
H     -3.333588    4.322285   -1.461396
H      1.694283    2.812906    1.423088
H      0.846042    4.366885    0.870969
H      2.457093    3.924322    0.253407
H     -4.181557    0.064829    1.246405
H     -4.729725    0.577780   -0.364556
H     -4.475577   -1.527205   -1.198900
H     -4.369702   -2.078696    0.483520
H     -0.279099   -2.706528    1.490167
H     -0.449513   -3.140680   -0.208251
H     -3.503103    2.604679   -0.359419
H      2.033739   -3.375736    0.420134
H      2.367751    1.418007   -0.421294
H     -2.133607   -1.478977    1.409154
H     -2.279756   -1.612759   -1.504775
