21

C      2.916214    0.363792    0.364546
C      2.428049    1.173588   -0.639638
C      2.044209   -0.538178    0.931491
C      1.119708    1.089373   -1.064685
C      0.718378   -0.635946    0.513254
C     -1.895277   -1.206930   -0.801724
C      0.243375    0.177927   -0.489893
C     -1.171236    0.071913   -0.934511
C     -2.254409   -0.107142    0.110264
N     -1.807089   -0.045203    1.465035
H      3.946620    0.420501    0.708976
H      3.127905    1.882827   -1.079934
H      2.405089   -1.192039    1.729315
H      0.749365    1.726958   -1.849874
H      0.119417   -1.367768    1.015470
H     -1.421306   -2.096609   -0.347564
H     -2.607589   -1.492029   -1.619731
H     -1.441656    0.769443   -1.743814
H     -3.243473    0.361793   -0.066756
H     -2.547272   -0.269616    2.156565
H     -1.429021    0.913344    1.643207
