19

C     -1.205091    1.499602    0.726858
C      1.087805   -1.510301    0.233002
C     -0.224868    0.428756    1.114333
C      0.568176    0.420427   -1.235921
C      0.096587   -0.410457   -0.112081
N     -1.136541   -1.071273   -0.494855
O     -0.080730    0.470683   -2.312376
O      1.729284    1.182061   -1.181099
H     -1.205967    1.608950   -0.374876
H     -2.222541    1.206987    1.061256
H     -0.942057    2.466608    1.209379
H      1.284964   -2.062121   -0.688744
H      2.021321   -1.113372    0.658879
H      0.605938   -2.151569    0.979922
H     -0.623672   -0.251136    1.890551
H      0.726158    0.838135    1.495483
H     -0.952560   -1.696877   -1.286884
H     -1.592354   -1.521721    0.323011
H      2.066147    1.666618   -2.005838
