23

C      4.053631    0.805259    0.103711
C     -0.292330    0.725799    0.151293
C     -0.132952   -1.654566    0.401399
C      1.102250    0.796477    0.131250
C      1.229866   -1.554566    0.378482
C     -0.903753   -0.487730    0.285143
C      1.867147   -0.328938    0.243251
C     -2.378371   -0.596931    0.313242
C     -3.083502    0.634450   -0.034389
O     -2.706546   -1.646751   -0.573731
O     -3.800429    0.630440   -1.076893
O     -2.993212    1.785274    0.731098
O      3.244438   -0.323238    0.230229
H      4.056194    1.344619    1.069020
H      5.089555    0.447294   -0.125047
H      3.741372    1.506301   -0.694880
H     -0.812101    1.665013    0.053818
H     -0.649051   -2.589564    0.504834
H      1.601542    1.756580    0.025314
H      1.845983   -2.463053    0.468851
H     -2.692997   -0.965247    1.327537
H     -3.630538   -1.943354   -0.447724
H     -3.756197    2.456431    0.673474
