28

C      3.967282   -0.162751    0.134974
C     -1.946884   -1.020273   -0.766623
C     -0.463406   -0.857603    1.157316
C     -2.437914    0.396089   -0.700266
C     -1.292980    0.388840    1.380107
C     -0.331820    1.384048   -0.593394
C      2.773998   -0.139435   -0.748750
C     -0.502970   -1.097024   -0.360309
C      0.321483    0.046619   -0.934264
N     -1.523475    1.130627    0.172943
O      2.825818   -0.248218   -1.982781
O      1.534709    0.012045   -0.164051
H      3.725474    0.182080    1.139147
H      4.323177   -1.216447    0.152614
H      4.741012    0.513490   -0.274491
H     -2.160566   -1.528580   -1.715622
H     -2.524521   -1.591649    0.017983
H     -0.870012   -1.735644    1.690350
H      0.588528   -0.631866    1.435177
H     -2.342176    0.813862   -1.745002
H     -3.478427    0.468113   -0.384224
H     -0.820779    0.978335    2.161313
H     -2.285108    0.038753    1.749817
H     -0.646812    1.906125   -1.522279
H      0.323123    2.050362   -0.038447
H     -0.017901   -2.036243   -0.631162
H      0.515812   -0.059606   -1.999551
H     -1.994666    2.015954    0.429193
