44

C      5.332783    0.152771   -0.849699
C      4.534322   -0.682595   -0.244406
C     -4.469316   -0.479071   -2.584125
C     -5.589278   -0.746911   -1.842908
C     -3.250827   -0.159845   -2.002133
C     -5.518251   -0.701465   -0.483096
C     -2.008129    0.250825    1.441261
C      2.634448    0.887824    1.393483
C     -3.169055   -0.028734    2.105643
C      2.464482    1.805323    0.228802
C      0.922029   -0.742959    0.664223
C      2.386777    0.074158   -1.330748
C      3.099657   -0.800457   -0.372833
C      2.393059   -0.573006    0.990194
C     -3.167004   -0.112085   -0.641317
C     -1.998406    0.209130    0.057224
C     -4.305234   -0.383298    0.126861
C      0.485690    0.614597    0.087183
C     -0.776047    0.486806   -0.707821
N     -4.309705   -0.343470    1.465803
N      1.589432    1.112722   -0.733894
O     -0.536110   -0.484194   -1.676141
H      6.427259    0.163657   -0.679919
H      5.007097    0.881343   -1.567687
H      5.028560   -1.389103    0.456542
H     -4.509439   -0.510763   -3.654373
H     -6.506306   -0.989249   -2.354790
H     -2.409526    0.056501   -2.612327
H     -6.383797   -0.907171    0.121724
H     -1.134744    0.519738    2.001034
H      3.645712    1.020030    1.810529
H      1.903679    1.152239    2.176525
H     -3.167291    0.005427    3.180782
H      3.369583    2.174297   -0.240344
H      1.885518    2.730359    0.525348
H      0.829450   -1.511882   -0.167269
H      0.337565   -1.093944    1.498606
H      1.745559   -0.531853   -2.043923
H      3.104226    0.584814   -2.000886
H      2.829387   -1.872241   -0.613371
H      2.768553   -1.240481    1.759023
H      0.335083    1.281662    0.926603
H     -0.960524    1.447924   -1.279622
H     -0.890920   -1.327368   -1.350039
