25

C      3.853515    0.906491    0.096016
C      2.541410    1.671397    0.064603
C     -3.755493    0.363231    0.035641
C     -2.653987    1.167344    0.208022
C     -3.554312   -0.973198   -0.214290
C     -1.358424    0.641967    0.131655
C     -2.284949   -1.488329   -0.289284
C     -1.159139   -0.676703   -0.115147
C      0.203396   -1.262705   -0.207280
C      1.239154   -0.339520    0.252330
O      0.223777   -2.427815    0.596127
O      1.889561   -0.603660    1.291246
O      1.536563    0.819325   -0.415237
H      3.989437    0.434073    1.096084
H      3.932353    0.159637   -0.708675
H      4.685996    1.639802   -0.012144
H      2.631706    2.567769   -0.584176
H      2.326939    2.034703    1.091989
H     -4.778609    0.763348    0.093144
H     -2.802371    2.216667    0.404432
H     -4.415001   -1.643325   -0.356830
H     -0.543737    1.351869    0.285614
H     -2.093157   -2.543845   -0.486096
H      0.386139   -1.582536   -1.259723
H     -0.040767   -3.195987    0.028124
