27

C      3.049836   -1.524998    0.010162
C      2.289811    0.810673   -0.649347
C     -2.806610    0.527012    0.897291
C     -1.825919   -1.554256   -0.188722
C      0.869135   -0.713697    0.660916
C      1.980808   -0.459640    0.032689
C     -0.251020    0.234324    0.756552
C     -0.753215    0.766566   -0.565561
C     -0.992842    2.205387   -0.634605
C     -1.603838   -0.127294    0.257431
O     -1.992816    2.789176   -0.133820
O     -0.082433    3.032975   -1.289444
H      2.736368   -2.414318    0.585221
H      4.021558   -1.115101    0.335540
H      3.139476   -1.812270   -1.067711
H      1.856330    0.911955   -1.659157
H      1.893954    1.657795   -0.028760
H      3.404098    0.955377   -0.749879
H     -3.416938   -0.248330    1.410099
H     -3.427644    0.975029    0.110262
H     -2.515600    1.344344    1.612168
H     -2.069049   -1.545596   -1.283144
H     -0.939152   -2.194732   -0.024818
H     -2.679280   -2.016031    0.348996
H      0.764975   -1.701377    1.150024
H     -0.228270    0.906249    1.629086
H     -0.421723    0.310778   -1.521466
