27

C      3.235249   -1.007011    0.108717
C      2.181339    1.305822    0.068008
C     -1.166853   -1.205727    1.300030
C     -2.757738   -0.676134   -0.640953
C      0.922467   -0.661545   -0.530368
C      2.050229   -0.156107   -0.140411
C     -0.324953    0.072919   -0.811350
C     -0.932734    1.015938    0.127866
C     -1.877792    2.032504   -0.346758
C     -1.480793   -0.389889    0.089508
O     -2.044976    2.340882   -1.551325
O     -2.645388    2.706210    0.592530
H      2.959795   -2.048448    0.384138
H      3.836008   -1.095676   -0.832854
H      3.893797   -0.622941    0.897753
H      2.074665    1.570367    1.154262
H      3.195999    1.651510   -0.274869
H      1.452039    1.890710   -0.502377
H     -0.198946   -0.874410    1.745913
H     -1.939156   -0.963992    2.078876
H     -1.206549   -2.284407    1.151275
H     -3.091530   -1.703823   -0.337871
H     -3.548001    0.059174   -0.433467
H     -2.573915   -0.748619   -1.739114
H      0.859554   -1.753429   -0.675765
H     -0.537261    0.208849   -1.891252
H     -0.334556    1.337274    1.009859
