30

C     -4.085597   -0.591152    0.070690
C     -2.536931    1.257001    0.394929
C      2.632695   -0.703204    0.964785
C      3.943136   -0.260787    0.988505
C      2.084891    0.919143   -0.660623
C     -0.532934   -0.210661   -0.958222
C     -2.622800   -0.230786    0.233070
C      1.685494   -0.121093    0.141584
C      4.358326    0.779669    0.190886
C      3.409302    1.354967   -0.626681
C      0.324189   -0.644979    0.176848
Cl     5.999759    1.385411    0.173611
Cl     3.855057    2.678640   -1.663719
N     -1.855686   -0.754400   -0.862505
O      0.393523   -2.049698    0.142217
H     -4.260505   -1.645135   -0.150343
H     -4.642743   -0.272729    0.996451
H     -4.533345    0.069592   -0.730350
H     -1.515611    1.607645    0.653125
H     -3.181849    1.523926    1.267494
H     -2.948383    1.739088   -0.505524
H      2.378572   -1.525053    1.616912
H      4.708532   -0.707834    1.635567
H      1.351488    1.370526   -1.300475
H     -0.083908   -0.613382   -1.900802
H     -0.601951    0.885379   -1.088718
H     -2.240815   -0.707295    1.169855
H     -0.191171   -0.394997    1.131012
H     -1.751346   -1.791005   -0.689019
H      0.460609   -2.346798   -0.810559
