32

C     -4.241309    1.025242    1.496439
C      4.856345    1.030143    0.951550
C     -4.308046   -0.283846    1.096085
C     -3.139687    1.763971    1.111381
C      4.799127    0.890682   -0.418324
C      3.692131    0.795545    1.682944
C     -3.295443   -0.855707    0.322961
C     -2.143710    1.191596    0.347549
C      3.617960    0.528359   -1.042255
C      2.519105    0.434553    1.050520
C     -2.195108   -0.135407   -0.067711
C      2.461428    0.294998   -0.319038
C     -1.087770   -0.675001   -0.889148
C      1.214231   -0.089381   -0.997503
C     -1.157083   -2.139275   -1.030561
N      0.173842   -0.291739   -0.263918
O      1.170970   -0.225977   -2.375283
O     -0.250445   -2.837887   -0.522519
O     -2.175866   -2.785468   -1.700382
H     -5.013885    1.502247    2.099937
H      5.764951    1.312040    1.466537
H     -5.157856   -0.869858    1.387723
H     -3.071305    2.810934    1.423024
H      5.699309    1.070140   -1.005094
H      3.723979    0.901683    2.758879
H     -3.379353   -1.901526    0.024561
H     -1.275611    1.773023    0.043883
H      3.558782    0.415648   -2.112570
H      1.601661    0.249114    1.620619
H     -1.094051   -0.178155   -1.894340
H      0.580217   -0.966142   -2.753051
H     -2.447510   -3.754550   -1.492894
