18

C      1.856757    0.437404   -0.209841
C     -0.740026   -0.974670   -0.689442
C      0.330927   -1.354039    0.301472
C     -0.217597    0.735293    0.929366
C     -1.028135    0.458946   -0.311588
N      0.941132   -0.123999    0.743392
O     -2.371236    0.627150   -0.042281
H      1.304667    1.009942   -0.992507
H      2.492314   -0.311574   -0.713467
H      2.536366    1.123222    0.355398
H     -0.372520   -1.014721   -1.736886
H     -1.637868   -1.608563   -0.539445
H      1.054092   -2.084491   -0.083761
H     -0.177237   -1.822541    1.166422
H     -0.757415    0.374968    1.821082
H      0.105610    1.786568    0.989692
H     -0.752205    1.161315   -1.114219
H     -2.567627    1.579788    0.126613
