21

C     -0.007402   -1.829958    0.775428
C     -2.732313    1.639399    0.328186
C      3.256230    1.164846   -0.480639
C      0.011096   -0.837272   -0.394725
C     -2.022157    0.408742   -0.083094
C      1.440800   -0.400929   -0.530329
N     -0.752805    0.309321   -0.019690
O     -2.776762   -0.651630   -0.546409
O      2.282970   -1.292901   -0.862205
O      1.863893    0.883305   -0.317123
H     -1.010298   -1.888492    1.227084
H      0.728243   -1.436342    1.534701
H      0.391620   -2.788232    0.425306
H     -3.226884    1.519173    1.314164
H     -3.509807    1.951585   -0.415949
H     -2.037233    2.498948    0.422650
H      3.749553    0.367296   -1.070055
H      3.691445    1.114248    0.556491
H      3.416366    2.174838   -0.899623
H     -0.331889   -1.336024   -1.315015
H     -2.424664   -1.569922   -0.688251
