30

C      0.491134    0.100409    1.372738
C      4.975361   -0.558793    0.501760
C     -4.097609    0.365676    0.999570
C     -3.828097   -0.833291    0.355798
C     -3.230454    1.434452    0.803087
C     -2.717636   -0.935699   -0.455661
C     -2.118181    1.334723   -0.008612
C      0.537280   -0.593789   -1.063531
C     -0.716046    0.004970   -1.543977
C      1.254825    0.044175    0.074394
C      3.661775    0.094885    0.201857
C     -1.845880    0.144847   -0.650872
O      3.660616    1.292330   -0.203032
O      2.481586   -0.603088    0.366916
H      0.205924    1.130513    1.588283
H     -0.410834   -0.521530    1.274477
H      1.084824   -0.334473    2.219711
H      5.102657   -1.397673   -0.196929
H      4.950878   -0.949097    1.530166
H      5.799608    0.159456    0.351494
H     -4.946018    0.489859    1.637014
H     -4.520468   -1.642063    0.529660
H     -3.438437    2.365860    1.302231
H     -2.528176   -1.884656   -0.948594
H     -1.426601    2.149126   -0.179764
H      0.350696   -1.689700   -0.888791
H      1.291369   -0.616280   -1.916126
H     -1.086454   -0.622255   -2.423248
H     -0.459182    0.983848   -2.069570
H      1.521541    1.087255   -0.262293
