24

C     -2.966663    1.004179   -0.878555
C     -3.514315    0.059464   -0.038508
C     -1.606485    1.096717   -1.076086
C     -2.673779   -0.795518    0.603759
C      0.673213    0.410792   -0.698671
C     -0.730996    0.221074   -0.419395
C      1.670345   -0.371852    0.052400
C     -1.309938   -0.700448    0.403795
C      3.017142    0.013904   -0.434679
N      1.599409    0.007381    1.448653
O     -0.498951   -1.574420    1.064090
O      3.336286   -0.209858   -1.624889
O      3.919982    0.613215    0.400895
H     -3.636815    1.700816   -1.404126
H     -4.569132   -0.001920    0.106114
H     -1.248331    1.861201   -1.749407
H     -3.065484   -1.537252    1.260370
H      0.854496    0.233574   -1.797151
H      0.915447    1.499574   -0.557518
H      1.597437   -1.468637   -0.091109
H      2.373940   -0.421015    2.006631
H      1.697454    1.057400    1.479650
H     -0.775933   -2.295518    1.693021
H      4.941670    0.580007    0.250716
