22

C      2.640221    1.454295    0.156167
C      1.454470    1.716603    0.815730
C      2.696047    0.290229   -0.566635
C      0.361608    0.876267    0.773711
C      1.629645   -0.569601   -0.631813
C     -1.885392   -1.035142    0.621766
C      0.438163   -0.279598    0.046570
C     -0.627180   -1.276378   -0.117043
C     -2.605064    0.192189    0.289904
O     -0.101440   -2.525020    0.205239
O     -3.610274    0.475916    1.027372
O     -2.332940    1.079354   -0.721616
H      3.491944    2.104842    0.186422
H      1.366628    2.614586    1.392554
H      3.624012    0.052702   -1.101732
H     -0.548663    1.094729    1.301420
H      1.730605   -1.471816   -1.216319
H     -2.573447   -1.893906    0.363080
H     -1.728956   -1.159545    1.732190
H     -0.908288   -1.319619   -1.221443
H      0.111101   -2.481630    1.187212
H     -2.622798    2.060545   -0.600612
