22

C     -3.311619    0.261433   -0.239844
C     -2.667176   -0.803741    0.331858
C     -2.615084    1.370887   -0.686291
C     -1.284763   -0.757988    0.460936
C     -1.234420    1.382378   -0.541272
C      1.505365   -0.941011    0.533783
C     -0.571271    0.334226    0.024455
C      0.895442    0.374192    0.165451
C      2.961582   -0.790753    0.648017
O      1.466156    0.835108   -1.023533
O      3.687779   -1.792732    0.955444
O      3.576490    0.423781    0.428557
H     -4.382332    0.219451   -0.336729
H     -3.231039   -1.661499    0.674251
H     -3.160451    2.186183   -1.129560
H     -0.814302   -1.616363    0.916313
H     -0.737948    2.279367   -0.909480
H      1.107220   -1.287892    1.516929
H      1.291619   -1.746669   -0.185106
H      1.188714    1.106249    0.959239
H      1.765019    0.059953   -1.583971
H      4.565019    0.565440    0.498234
