20

C     -2.648099   -0.589045    0.134966
C     -0.670489    0.505889   -1.610956
C      3.301257   -0.376001    0.850984
C     -1.212219   -1.019869    0.206579
C     -0.303441    0.143616   -0.214790
C      1.933423    0.239203    0.815518
O      1.603725    1.197818    1.522187
O      1.013513   -0.303690   -0.052678
H     -3.190660   -1.053465    0.995605
H     -2.707064    0.521634    0.185146
H     -3.114332   -0.911183   -0.830614
H     -1.783182    0.437347   -1.700709
H     -0.403854    1.535399   -1.904489
H     -0.266582   -0.254680   -2.334855
H      3.586632   -0.535645    1.924286
H      3.297708   -1.363621    0.378520
H      4.036924    0.329774    0.427818
H     -0.914483   -1.361112    1.225884
H     -1.058965   -1.882382   -0.473967
H     -0.499812    0.997259    0.455564
