24

C     -3.345708    0.716343   -0.537333
C      3.210328    1.156323   -0.379808
C      1.973453    1.654536   -0.664060
C      3.284827   -0.107874    0.168619
C      0.800566    0.923606   -0.415556
C      2.135165   -0.818022    0.409377
C     -1.620652   -0.499565    0.435822
C      0.853612   -0.329538    0.126709
C     -0.308697   -1.198357    0.431279
N     -2.054018    0.097468   -0.770798
O     -0.166753   -1.720534    1.751675
H     -3.454813    1.025286    0.533646
H     -4.176067    0.004841   -0.731566
H     -3.476523    1.647450   -1.129757
H      4.098079    1.733367   -0.578137
H      1.882298    2.657088   -1.100804
H      4.255904   -0.519709    0.400777
H     -0.149245    1.358235   -0.651683
H      2.230712   -1.794292    0.835046
H     -1.614493    0.292096    1.227370
H     -2.435629   -1.207629    0.767221
H     -0.276960   -2.058717   -0.276417
H     -2.063474   -0.507046   -1.599497
H      0.418088   -2.505356    1.747875
