23

C     -2.614092    0.233949    0.825149
C      3.290420    0.305185    1.084113
C      2.562312   -0.817548    0.820939
C      2.783799    1.535910    0.705034
C      1.321731   -0.708630    0.175609
C      1.586093    1.647910    0.081774
C     -1.363766   -0.145876   -1.217153
C     -2.046571   -0.846525   -0.077905
C      0.831061    0.508428   -0.193075
O     -3.074223   -1.680705   -0.547294
O     -0.346548    0.686959   -0.808800
H     -3.442100    0.738940    0.261324
H     -2.936145   -0.151276    1.798072
H     -1.843508    1.013593    0.976372
H      4.254320    0.199013    1.587615
H      2.934581   -1.775868    1.104747
H      3.374512    2.420523    0.920732
H      0.818589   -1.648868   -0.010766
H      1.207611    2.630615   -0.207606
H     -2.120978    0.415876   -1.848753
H     -0.979214   -0.953125   -1.910562
H     -1.378240   -1.480928    0.508094
H     -2.819645   -2.127551   -1.387468
