32

C      2.309624   -1.734418    0.863402
C     -2.694680   -2.629378   -0.777649
C     -1.606361    3.233828   -0.792461
C     -1.693261   -3.234578   -0.044010
C     -0.457179    3.474788   -0.066913
C     -2.639061   -1.273064   -0.931655
C     -2.012763    1.917026   -0.917184
C     -0.659102   -2.518012    0.525117
C      0.263043    2.442992    0.514014
C      1.787366   -0.402290    0.387916
C     -1.597038   -0.540121   -0.359400
C     -1.295872    0.886759   -0.338263
C     -0.584566   -1.160505    0.382287
C     -0.152026    1.136589    0.381887
C      0.388448   -0.162115    0.858422
C      3.344010    1.340062   -0.175713
Cl     4.492839    2.607300    0.234155
O      3.108878    1.106215   -1.388519
O      2.691057    0.592911    0.781223
H      2.011871   -2.002280    1.875163
H      2.121850   -2.487086    0.077842
H      3.445373   -1.680769    0.911686
H     -3.505130   -3.204888   -1.222125
H     -2.191966    4.015532   -1.259033
H     -1.756621   -4.312917    0.066462
H     -0.154328    4.516622    0.019906
H     -3.411861   -0.742468   -1.506564
H     -2.903319    1.709621   -1.477239
H      0.068056   -3.086924    1.084038
H      1.147519    2.729040    1.065668
H      1.738965   -0.413249   -0.737677
H      0.396234   -0.124222    1.965215
