24

C      2.648626    0.130219   -1.148449
C     -2.795451    0.649265    0.532404
C      1.263531    0.098743   -0.954913
C     -1.320493    1.066411    0.647112
C      3.481114   -0.218725   -0.118223
C     -2.702523   -0.242098   -0.685961
C      1.606991   -0.621043    1.264844
C      0.732159   -0.277920    0.255670
C     -0.702225   -0.325306    0.502197
N      2.956183   -0.585967    1.062555
N     -1.453240   -0.951274   -0.570998
H      3.042135    0.424526   -2.092831
H     -2.990416    0.034712    1.436350
H     -3.458182    1.498440    0.408719
H      0.625880    0.376749   -1.777464
H     -1.094961    1.529466    1.605132
H     -1.123687    1.694791   -0.239273
H      4.567025   -0.210693   -0.218094
H     -2.628820    0.446499   -1.574407
H     -3.575321   -0.915041   -0.782471
H      1.231896   -0.923594    2.233711
H     -0.978454   -0.869032    1.428947
H      3.583503   -0.859879    1.873061
H     -0.915271   -0.949251   -1.472511
