22

C     -2.402072    0.292861    0.689304
C      0.454520   -0.871253   -1.547617
C     -1.606180    0.012713   -0.542507
C     -0.266280   -0.630630   -0.252620
C      0.555507    0.261033    0.669362
C      1.846824   -0.425025    0.939168
N      0.821015    1.540894    0.056479
O      1.903050   -1.563605    1.472105
O      3.061179    0.166610    0.611504
H     -3.443101   -0.078167    0.601081
H     -1.920893   -0.190482    1.562370
H     -2.471977    1.393435    0.874100
H      1.377859   -0.269121   -1.629332
H     -0.183019   -0.587976   -2.405342
H      0.654858   -1.966964   -1.619773
H     -1.423373    0.976395   -1.095251
H     -2.137315   -0.648578   -1.253464
H     -0.466191   -1.571166    0.304008
H      0.041046    0.370331    1.632544
H      0.043136    2.217087    0.201143
H      1.707221    1.958163    0.417333
H      3.854185   -0.386556    0.315403
