32

C     -2.285467   -1.063353   -0.688519
C     -2.658701    0.224977    1.250652
C      3.033842   -0.743765    0.681997
C     -3.588605   -1.546575   -0.607735
C     -3.966531   -0.261189    1.330112
C      4.278420   -0.147142    0.636699
C      0.609335   -0.737522    0.213344
C      3.392371    1.767899   -0.446129
C     -0.191652    1.127233   -1.122910
C     -1.808194   -0.172808    0.240179
C      1.940412   -0.077773    0.154598
C     -0.436839    0.341553    0.163005
C     -4.446949   -1.155934    0.397529
C      4.456821    1.098697    0.077234
C      2.135520    1.169028   -0.402118
O     -5.751479   -1.645555    0.470486
O      5.761019    1.630270    0.074396
O      1.022753    1.827787   -0.929785
H     -1.612526   -1.379612   -1.490072
H     -2.310341    0.925029    1.995722
H      2.884793   -1.722887    1.119994
H     -3.934447   -2.247226   -1.355009
H     -4.635710    0.042576    2.112803
H      5.158211   -0.664002    1.051997
H      0.497346   -1.353670    1.128937
H      0.493686   -1.433820   -0.665115
H      3.520643    2.746379   -0.887812
H     -1.020054    1.789112   -1.367420
H     -0.104598    0.372341   -1.946600
H     -0.222337    1.047107    0.990146
H     -6.526470   -1.158006   -0.003061
H      6.315731    1.400855   -0.747408
