19

C     -1.885573    0.804310    0.858088
C      2.258702    0.373905   -0.670147
C     -0.131741   -0.047772   -0.719984
C     -1.442919   -0.296840   -0.056604
C      1.022308    0.132732    0.201172
O     -1.484813   -1.488397    0.656094
O      1.298646   -0.989684    0.968761
H     -2.983572    0.630271    1.057201
H     -1.848702    1.804139    0.368388
H     -1.402915    0.804114    1.840252
H      2.921903    1.136776   -0.246465
H      1.967541    0.658180   -1.703115
H      2.851125   -0.576509   -0.776102
H      0.084727   -0.894342   -1.391662
H     -0.223040    0.851268   -1.349961
H     -2.209363   -0.359332   -0.869831
H      0.951653    0.992589    0.873169
H     -1.952470   -2.186696    0.130867
H      2.208504   -1.348712    0.829876
