20

C     -1.607161   -1.071698   -0.494636
C      0.340324    0.353052    0.145096
C      1.280434   -0.773825   -0.219420
C     -0.902648    0.261049   -0.717242
C      2.469139   -0.644684    0.640336
C     -1.825353    1.314283   -0.236288
O      2.440629   -1.066337    1.812135
O      3.615689   -0.058538    0.155977
O     -2.222374    2.175157   -1.053377
O     -2.242867    1.353509    1.080126
H     -1.056662   -1.873626   -0.980436
H     -2.607945   -0.964001   -0.972048
H     -1.776297   -1.195873    0.581768
H      0.879091    1.293703    0.001193
H      0.075529    0.243080    1.216692
H      0.775536   -1.761192   -0.097921
H      1.597551   -0.625100   -1.282515
H     -0.669894    0.398080   -1.769398
H      4.215337    0.511952    0.747853
H     -2.778056    2.131010    1.442104
