21

C      2.957488   -1.106368    0.786370
C      2.213592    1.145591    0.655817
C      1.765525   -1.514360    0.269505
C      0.994358    0.741467    0.127626
C     -1.614749   -0.707329   -1.025826
C     -3.214358    1.202801   -0.468274
C      3.180093    0.234453    0.980031
C      0.741227   -0.587914   -0.076575
C     -2.593496   -0.076981   -0.090314
F      4.359394    0.657753    1.493393
O     -0.401827   -1.076336   -0.582592
O     -2.207982    1.122555    0.506585
H      3.717383   -1.839095    1.039618
H      2.385117    2.206992    0.807209
H      1.566557   -2.558131    0.108298
H      0.269298    1.490025   -0.132395
H     -1.564925   -0.054534   -1.950439
H     -2.129985   -1.643043   -1.459731
H     -4.189939    1.513592   -0.053221
H     -2.979177    1.592976   -1.461237
H     -3.253594   -0.744114    0.526153
