15

C      1.631902   -0.357113    0.159116
C     -0.748764   -0.666772   -0.582589
C     -1.535365   -0.218729    0.639603
C      0.451689    0.235445   -0.562153
C     -0.049024    1.450167    0.102064
O      0.569116    2.540998    0.153411
O     -1.285082    1.179399    0.642030
H      1.516620   -1.451168    0.354511
H      2.582720   -0.222833   -0.434693
H      1.800055    0.211584    1.105546
H     -1.365156   -0.394545   -1.463512
H     -0.515831   -1.733634   -0.562359
H     -1.135271   -0.697698    1.550274
H     -2.625512   -0.362546    0.508205
H      0.707903    0.487444   -1.609455
