34

C     -3.625215   -0.386252    1.831762
C     -2.951199   -1.515956    1.479325
C     -3.351192    0.768712    1.171203
C      3.543290   -1.420466    1.366118
C      2.471534   -2.140324    0.911122
C      3.583312   -0.066254    1.067472
C     -2.011281   -1.473983    0.469821
C     -2.398843    0.785071    0.157078
C      1.454111   -1.530055    0.172136
C      2.691170    1.903217    0.056127
C      1.702560    2.499522   -0.684307
C      2.590907    0.558745    0.339816
C     -1.686729   -0.324441   -0.241155
C      1.494992   -0.197016   -0.119185
C      0.595148    1.771056   -1.155592
C      0.493403    0.430479   -0.871791
C     -0.656485   -0.328279   -1.316859
N     -1.213882    0.148681   -2.579464
O     -0.300257    2.447147   -1.863593
H     -4.373803   -0.397793    2.628939
H     -3.164214   -2.448375    2.003840
H     -3.873705    1.678922    1.433055
H      4.334433   -1.867955    1.934629
H      2.404821   -3.199388    1.123566
H      4.410027    0.561661    1.400756
H     -1.544640   -2.443618    0.259082
H     -2.247359    1.715868   -0.310839
H      0.656369   -2.134296   -0.178362
H      3.545332    2.465135    0.420752
H      1.777686    3.563116   -0.912354
H     -0.512743   -1.401871   -1.542431
H     -0.565879   -0.179905   -3.330363
H     -2.139262   -0.206690   -2.789916
H     -1.132406    2.365589   -2.330386
