22

C      2.760532   -0.450405   -0.101620
C      2.544537    0.656561    0.685852
C      1.674359   -1.086928   -0.663766
C      1.280624    1.128997    0.915895
C     -0.923621   -1.143914   -0.929651
C      0.383327   -0.621320   -0.440958
C      0.182286    0.481885    0.344731
C     -1.891040   -0.568399    0.095860
C     -1.275633    0.759906    0.405586
N     -1.560139    1.734469   -0.635579
O     -1.840924   -1.368056    1.230235
H      3.767152   -0.831260   -0.288332
H      3.410433    1.158714    1.130305
H      1.825568   -1.970821   -1.294480
H      1.099865    1.993486    1.529759
H     -0.898962   -2.238095   -0.845003
H     -1.170754   -0.777810   -1.925737
H     -2.911420   -0.477509   -0.306690
H     -1.571491    1.161363    1.391910
H     -1.659512    1.318903   -1.568674
H     -2.279420    2.421099   -0.371370
H     -0.945767   -1.280864    1.641729
