24

C     -1.553270   -0.716276   -0.983519
C     -1.366409   -0.197955    1.408692
C     -1.195810    1.597334   -0.285688
C      1.752672   -2.190953   -0.597578
C      0.633548   -0.108022   -0.099020
C      1.433058    0.691832    0.844018
C     -0.862348    0.167567    0.038078
N      0.864804   -1.502263   -0.044441
O      2.698110   -1.593355   -1.404216
O      2.263528    0.188908    1.644306
O      1.296664    2.072577    0.887068
H     -1.008472   -1.642764   -1.177874
H     -1.574214   -0.129809   -1.939811
H     -2.607558   -0.859326   -0.684542
H     -0.771881    0.331952    2.173789
H     -1.295621   -1.288856    1.564998
H     -2.405584    0.183319    1.484250
H     -0.356274    2.090877   -0.785233
H     -1.475558    2.134044    0.660008
H     -2.090015    1.681863   -0.960732
H      1.789766   -3.252567   -0.451795
H      0.887743    0.236865   -1.136467
H      2.871764   -0.593732   -1.235675
H      2.071357    2.698737    1.081384
