31

C     -4.586913    0.450064   -0.570396
C     -3.884964    1.154816   -1.533571
C     -3.908516   -0.278797    0.375448
C      4.064879   -0.014047    1.799409
C      3.249469    0.720423    2.626019
C     -2.499115    1.102187   -1.513141
C     -2.536379   -0.314480    0.373810
C      3.522893   -0.581535    0.670678
C      1.921801    0.869572    2.308040
C      0.182864   -1.024970   -1.036999
C     -1.808888    0.388786   -0.588302
C      2.176377   -0.438428    0.335153
C      1.658565   -1.069945   -0.887779
C      1.371738    0.293426    1.162230
C     -0.344936    0.285832   -0.503713
O      2.329483   -0.602357   -2.024546
O      0.035361    0.446836    0.847881
H     -5.683736    0.461267   -0.546043
H     -4.433047    1.716134   -2.261072
H     -4.496350   -0.813125    1.107720
H      5.135258   -0.152193    2.027357
H      3.680627    1.160493    3.505802
H     -1.959692    1.647456   -2.258177
H     -2.045267   -0.901806    1.137980
H      4.169386   -1.165769    0.012286
H      1.244495    1.440677    2.932711
H     -0.332188   -1.894393   -0.575494
H     -0.068109   -1.044133   -2.126711
H      1.953649   -2.159537   -0.819335
H      0.083607    1.095306   -1.130030
H      1.807646   -0.777765   -2.847215
