15

C      0.070807   -0.848421   -1.154429
C      0.693578   -0.196004    0.062530
C     -0.718805    0.128656   -0.345579
C      1.752019    0.814476   -0.150361
C     -1.775352   -0.343998    0.558647
O      1.692689    1.578928   -1.151633
O      2.799302    0.911274    0.753302
O     -1.630408   -1.432022    1.163563
O     -2.961990    0.348625    0.800608
H      0.511246   -0.533805   -2.108400
H     -0.158571   -1.932013   -1.084282
H      0.821422   -0.819671    0.957040
H     -0.913301    1.104891   -0.851414
H      3.674551    1.363863    0.462381
H     -3.857186   -0.144779    0.842267
