31

C     -4.220239    0.722781   -0.209013
C     -4.166078   -0.658054   -0.198122
C     -3.065421    1.496334   -0.246637
C      3.626955    1.651047   -0.096599
C      2.978413    2.012456   -1.262881
C     -2.918903   -1.254446   -0.225967
C     -1.831843    0.886952   -0.274005
C      3.224144    0.584538    0.666128
C      1.887968    1.273320   -1.672435
C      0.107651   -1.122217    1.101513
C     -1.777921   -0.481132   -0.263221
C      2.146100   -0.148590    0.263995
C      1.615097   -1.321439    1.000967
C      1.481561    0.200553   -0.906658
C     -0.467113   -1.172129   -0.291910
O      2.213432   -1.531327    2.208598
O      0.394174   -0.589570   -1.253942
H     -5.163651    1.239784   -0.188539
H     -5.067180   -1.276594   -0.168629
H     -3.121913    2.578317   -0.254798
H      4.491998    2.230454    0.236299
H      3.344691    2.870127   -1.827286
H     -2.843888   -2.325867   -0.218393
H     -0.933610    1.477447   -0.303168
H      3.717406    0.283290    1.583535
H      1.363564    1.535570   -2.580939
H     -0.317232   -1.984612    1.659389
H     -0.153080   -0.206278    1.634531
H      1.748101   -2.213107    0.329695
H     -0.599241   -2.230840   -0.589514
H      2.306056   -2.526769    2.348007
