32

C      4.638075   -0.083781   -0.308577
C     -4.560267    0.798267   -0.454385
C      4.060159    1.136026   -0.064025
C      3.849461   -1.210262   -0.344565
C     -3.624971    1.668424    0.044820
C     -4.161472   -0.382677   -1.046297
C      2.690639    1.218769    0.143522
C      2.488246   -1.093562   -0.133667
C     -2.260233    1.352561   -0.048944
C     -2.818436   -0.673399   -1.128033
C      1.875464    0.110030    0.113655
C     -1.826145    0.192703   -0.627899
C      0.433505    0.298174    0.348689
C     -0.426842   -0.200294   -0.753852
C      0.075174   -0.605195    1.468490
N     -0.397848   -1.636049   -0.423079
N     -0.389561   -1.684879    0.965762
O      0.224686   -0.314412    2.833048
H      5.715760   -0.137925   -0.470479
H     -5.602849    1.089911   -0.356638
H      4.706657    2.002559   -0.042052
H      4.325994   -2.163301   -0.539240
H     -3.865759    2.613358    0.522452
H     -4.922490   -1.040710   -1.426651
H      2.311844    2.223737    0.331028
H      1.907354   -1.981762   -0.165959
H     -1.537988    2.046129    0.343145
H     -2.492447   -1.603960   -1.593838
H      0.277582    1.362466    0.603859
H     -0.018061   -0.027087   -1.766365
H     -0.387097   -2.394610   -1.110150
H     -0.288132   -0.879247    3.513860
