30

C     -3.212544    3.185294    2.615477
C     -2.078305   -1.261482    3.381737
C     -2.645960    1.854022    2.295120
C     -1.918253   -0.676801    2.312801
C      4.073279   -0.582484   -1.464981
C      3.607701   -0.036154   -0.311139
C     -2.278826    1.408430    1.121612
C      3.211456   -1.148686   -2.362918
C      2.261176   -0.052824   -0.045022
C     -1.723528    0.000388    1.022630
C      1.823177   -1.183741   -2.124652
C      1.371507   -0.637336   -0.973730
C      0.982582   -1.765873   -3.137842
C     -0.015432   -0.630939   -0.558674
O     -0.265242   -1.832887   -3.152976
O      1.607062   -2.350576   -4.277388
O     -0.919278   -1.162904   -1.211396
O     -0.374766    0.012790    0.653429
H     -4.126796    3.079150    3.277809
H     -3.508045    3.788132    1.760842
H     -2.478081    3.687543    3.302864
H     -2.215533   -1.786965    4.303863
H     -2.510798    1.153923    3.149459
H      5.146048   -0.573102   -1.687880
H      4.320039    0.407272    0.392849
H     -2.367258    2.023764    0.246029
H      3.573136   -1.580353   -3.268114
H      1.889576    0.375173    0.860793
H     -2.334349   -0.546842    0.269784
H      1.106255   -3.165931   -4.668037
