28

C     -1.446302   -1.642090    0.801936
C     -2.303403    1.717594   -0.447823
C      3.376872    0.045113    1.027184
C      2.540692    1.114887    0.797687
C      2.981739   -1.190669    0.552153
C      1.339646    0.979181    0.115998
C      1.791117   -1.335274   -0.125729
C     -1.529110   -0.518702   -0.211252
C      0.944623   -0.252807   -0.358148
C     -0.324027   -0.433456   -1.085335
N     -1.857518    0.681743    0.487786
O     -0.549873    0.556646   -2.043018
H     -1.199854   -2.615181    0.331298
H     -0.698224   -1.372625    1.586030
H     -2.454433   -1.740070    1.255361
H     -3.164313    2.299563   -0.005156
H     -1.508023    2.465180   -0.612612
H     -2.676643    1.267768   -1.384613
H      4.321858    0.138472    1.560710
H      2.835755    2.090264    1.163474
H      3.656028   -2.026388    0.742883
H      0.739499    1.867331   -0.023949
H      1.485862   -2.319275   -0.498878
H     -2.396439   -0.767507   -0.871534
H     -0.295992   -1.396746   -1.677409
H     -1.163254    1.017048    1.160941
H     -2.726804    0.460339    1.061495
H      0.280520    0.909660   -2.422962
