41

C     -5.199661   -1.260212   -0.554673
C     -5.788699    1.173168   -0.384745
C      7.574377    0.078413   -0.925383
C      3.723325   -0.612102    1.360653
C      3.001897   -0.665890   -0.866066
C      2.421306   -0.583627    1.782125
C      1.667460   -0.637622   -0.451267
C     -2.885379    0.445982   -0.634540
C     -1.137658   -0.544329    0.706219
C     -5.080846    0.031713    0.255923
C      6.228105    0.237445   -0.345245
C      4.044495   -0.653706    0.026190
C     -1.441827    0.666324   -0.138681
C      1.336637   -0.595089    0.878551
N     -3.694851    0.251352    0.521067
N      5.357046   -0.684263   -0.477698
O      5.906256    1.387176    0.344352
O     -1.421828    1.807922    0.696904
O      0.057714   -0.568154    1.354537
H     -4.790031   -1.003399   -1.572198
H     -4.474520   -1.964206   -0.099858
H     -6.226788   -1.629350   -0.587660
H     -6.092600    1.923365    0.370786
H     -6.759846    0.778536   -0.805366
H     -5.252357    1.681784   -1.183451
H      7.981621   -0.947899   -0.752239
H      8.317378    0.790643   -0.549442
H      7.524855    0.213378   -2.039903
H      4.532101   -0.602034    2.081994
H      3.206460   -0.698756   -1.932462
H      2.139233   -0.550816    2.835553
H      0.909656   -0.670793   -1.235855
H     -3.194119    1.311662   -1.257962
H     -2.844307   -0.487923   -1.225034
H     -1.224746   -1.435189   -0.001264
H     -2.007928   -0.676964    1.425027
H     -5.579840   -0.179142    1.237671
H     -0.791448    0.776020   -0.986172
H     -3.475692    0.825500    1.338418
H      4.938842    1.732841    0.418934
H     -1.503792    1.538242    1.649269
