19

C      1.797899    1.148013   -0.820344
C      2.712670    0.411194   -0.102932
C      0.457151    0.821103   -0.805561
C      2.232536   -0.669653    0.632828
C     -0.029825   -0.244509   -0.082544
C      0.889641   -0.978178    0.633299
C     -1.436124   -0.639638   -0.027364
C     -2.379994    0.454756    0.157487
Cl     0.375772   -2.370603    1.599318
O     -1.765013   -1.334630   -1.199284
O     -3.290957    0.619109   -0.688519
O     -2.351202    1.349492    1.217888
H      2.135514    1.998808   -1.406518
H      3.778397    0.639577   -0.090820
H     -0.262977    1.396008   -1.366431
H      2.947434   -1.252443    1.198765
H     -1.565466   -1.387718    0.789416
H     -1.711933   -2.313574   -1.088153
H     -2.533524    2.352887    1.078533
