19

C     -2.280979   -0.766066   -0.533488
C     -2.787356    0.233548    0.260894
C     -0.930413   -1.011888   -0.579465
C     -1.904937    0.972850    1.002565
C      0.005891   -0.282833    0.158914
C     -0.528208    0.706941    0.943498
C      1.413595   -0.626302   -0.012919
C      2.365790    0.404132   -0.333930
Cl     0.534818    1.647854    1.950590
O      1.499210   -1.609811   -1.040971
O      2.966632    0.376934   -1.461026
O      2.701965    1.440063    0.478391
H     -2.994323   -1.347488   -1.118336
H     -3.860739    0.416669    0.286137
H     -0.596262   -1.820069   -1.229367
H     -2.272239    1.760736    1.632668
H      1.700026   -1.208200    0.925638
H      1.325029   -1.126744   -1.898648
H      3.642499    1.839672    0.568855
