28

C     -1.198516   -1.363921    0.625430
C     -3.353663    0.981389    0.464288
C      3.738654    0.081201    0.666492
C      3.179962    1.313839    0.372760
C      3.074558   -1.105135    0.441828
C      1.915603    1.313184   -0.160980
C      1.786421   -1.074459   -0.103420
C     -1.179492    0.074114    0.110916
C      1.222271    0.146979   -0.398931
C     -0.128994    0.239420   -0.973814
N     -2.475081    0.306890   -0.492382
O     -0.339229   -0.671416   -2.003405
H     -1.121483   -2.043113   -0.249549
H     -0.400618   -1.480802    1.361433
H     -2.197862   -1.585986    1.081174
H     -3.688258    0.232746    1.202854
H     -2.826176    1.812579    0.968845
H     -4.238562    1.321976   -0.117350
H      4.740866    0.081190    1.089636
H      3.698021    2.240772    0.547936
H      3.566447   -2.025174    0.692667
H      1.457294    2.283415   -0.400026
H      1.277624   -1.998141   -0.274898
H     -1.001681    0.804672    0.906164
H     -0.298353    1.246409   -1.411089
H     -2.920758   -0.579454   -0.785578
H     -2.360054    0.988593   -1.297969
H      0.071058   -1.541767   -1.863034
