40

C      3.939551    0.208611    0.263643
C      3.588327   -0.017494   -1.186419
C      2.747577    0.873398    0.899905
C     -4.349469   -0.465526    1.033227
C      2.257655   -0.611874   -1.413686
C     -3.286418    0.073747    1.621171
C     -0.057713    1.416555   -0.356141
C     -2.884267   -1.016923   -0.993874
C     -0.801907    0.198431    1.705389
C      0.065101   -1.059864   -0.764998
C      0.313436    0.921025    1.024308
C     -0.694770    0.214176   -1.068351
C     -4.203273   -0.990727   -0.315945
C      1.533737    0.010905    0.815897
C     -2.080320    0.134345   -0.502261
N      1.415894   -0.804668   -0.314877
N     -2.017918    0.137425    0.939342
O     -5.228349   -1.423448   -0.894261
H      4.782379    0.949602    0.284025
H      4.289863   -0.684058    0.780530
H      3.700393    0.975068   -1.693809
H      4.423407   -0.641057   -1.621125
H      3.003251    1.095159    1.967997
H      2.573016    1.834590    0.400197
H     -5.314982   -0.509803    1.562176
H      1.731649    0.002352   -2.203019
H      2.409868   -1.609925   -1.924848
H     -3.399008    0.462724    2.623282
H      0.832650    1.777919   -0.862196
H     -0.842153    2.203616   -0.222972
H     -2.997599   -0.964423   -2.096859
H     -2.418163   -1.994071   -0.735924
H     -0.483954   -0.813218    2.088554
H     -1.056035    0.767858    2.648165
H      0.168840   -1.590895   -1.756734
H     -0.487991   -1.754269   -0.119202
H      0.636163    1.825774    1.599442
H     -0.734675    0.442574   -2.141326
H      1.540016   -0.647923    1.734902
H     -2.613809    1.074311   -0.803325
