56

C      7.226801    0.968090    0.924481
C     -2.095266   -2.211878    1.697553
C     -2.594373    3.730979    0.806346
C      6.153535    0.909797    1.984843
C      4.811971    0.581201    1.326371
C      4.521864    1.698142    0.319469
C      3.233522    1.449050   -0.360354
C      2.478288    0.395980   -0.098570
C      1.228045    0.241824   -0.822033
C     -1.869685   -2.129201   -3.243086
C      0.398652   -0.765924   -0.642753
C     -0.636683   -2.082032   -2.372991
C     -3.022374   -1.371729   -2.678934
C     -4.277146   -0.622071   -0.737895
C     -4.371209   -0.499663    0.758040
C     -1.936981   -0.963136    0.817136
C     -2.758556    2.404063    1.471080
C     -0.869864   -0.964451   -1.346143
C     -3.175434   -1.528057   -1.183019
C     -2.998938   -0.003897    1.233363
N     -1.944602   -1.372447   -0.522166
O     -2.816638    2.334602    2.740026
O     -2.843320    1.285966    0.690898
H      8.206273    0.715657    1.373824
H      7.244966    1.995703    0.488047
H      6.976703    0.219158    0.138742
H     -2.843885   -2.849238    1.174499
H     -1.143470   -2.791582    1.697820
H     -2.460023   -1.964684    2.698797
H     -1.516087    3.923397    0.650841
H     -3.065314    4.529125    1.434429
H     -3.162351    3.683141   -0.162642
H      6.347813    0.090449    2.720434
H      6.105249    1.888826    2.482207
H      4.904120   -0.392823    0.805926
H      4.013530    0.481125    2.078812
H      5.339031    1.675876   -0.425907
H      4.575161    2.686745    0.817315
H      2.927649    2.186414   -1.101545
H      2.805070   -0.336429    0.653062
H      0.949020    0.983525   -1.548543
H     -1.585090   -1.624773   -4.209302
H     -2.152163   -3.161924   -3.535014
H      0.690591   -1.508375    0.092952
H      0.293953   -1.912469   -2.941636
H     -0.503430   -3.011625   -1.781946
H     -3.956132   -1.749833   -3.154636
H     -2.995658   -0.279348   -2.895369
H     -5.255238   -0.993609   -1.098454
H     -4.141638    0.390899   -1.148125
H     -5.132424    0.262649    1.003931
H     -4.605771   -1.464642    1.257052
H     -0.946812   -0.483878    1.053760
H     -1.187341   -0.081762   -1.937890
H     -3.525113   -2.590888   -1.027589
H     -3.042801   -0.000014    2.343332
