40

C      2.454985    1.132895   -1.818133
C      1.404783   -0.669000    2.746943
C     -3.061020    2.096480    0.245569
C     -1.788214   -1.413719   -1.445861
C     -2.776930   -1.568572   -0.310949
C      3.757843   -1.838482    0.119543
C      3.550198   -0.905885   -0.866513
C      3.047277   -1.733295    1.276993
C     -0.692199   -0.501289   -0.938619
C     -3.322531   -0.230543    0.008947
C      2.648542    0.125449   -0.716248
C      2.142116   -0.710162    1.445528
C     -1.163759    0.787800   -0.421400
C      1.906785    0.257641    0.458459
C     -0.172737    1.519482    0.388756
N      0.997689    1.258450    0.689898
N     -2.400255    0.799372    0.277542
O     -0.674238    2.751042    0.911581
H      1.753863    1.903127   -1.490334
H      3.438698    1.646438   -1.995910
H      2.184955    0.638988   -2.757751
H      2.178908   -0.701212    3.546648
H      0.852242    0.283492    2.871162
H      0.770075   -1.560617    2.887404
H     -2.571519    2.788897   -0.451357
H     -2.980039    2.520828    1.267873
H     -4.153719    1.972127    0.019652
H     -2.288069   -1.039292   -2.336245
H     -1.343087   -2.406898   -1.650623
H     -3.618805   -2.190893   -0.734514
H     -2.379035   -2.138178    0.526079
H      4.468493   -2.647605   -0.004615
H      4.107801   -0.970867   -1.800432
H      3.220225   -2.479231    2.053378
H      0.016773   -0.395784   -1.787393
H     -0.176363   -1.082651   -0.155702
H     -3.998070   -0.339207    0.906844
H     -4.007409    0.099987   -0.823200
H     -1.329755    1.453617   -1.327688
H     -0.004498    3.487271    1.184691
