76

C     -7.821298    1.845023    0.736193
C     -2.063134    0.391758    3.096033
C     -9.127682   -0.602403   -1.364167
C     -2.550880   -1.158405   -0.617863
C      0.457661    0.201152   -2.355231
C     -8.032986    0.448931    1.271992
C     -0.876231    0.471997    1.025821
C     -6.794732   -0.648973   -1.919509
C     -0.037431    1.379889    0.518683
C      3.360267   -0.258935    0.059692
C     -5.351171   -0.660488   -1.597385
C      4.269385   -0.643590   -0.847070
C     -3.415697    0.259895    1.106816
C      8.107309   -0.299971    0.760709
C      8.465348    1.506574   -0.823037
C     -2.179349    0.808593    1.593535
C     -7.677108   -0.611849   -0.943007
C     -3.694733   -0.600563    0.152951
C      1.531951    0.690862   -1.456293
C      7.684501    0.229401   -0.595848
C      1.266023    1.230402   -0.066284
C      1.919099   -0.092039   -0.249442
C      7.438807   -1.641344    0.952324
C     -7.274981   -0.582915    0.458748
C     -5.106338   -1.038073   -0.180950
C      5.694729   -0.807941   -0.537239
C      8.169961    2.507299    0.231223
C      5.937606   -1.551774    0.753765
O      7.675035   -2.175091    2.215082
O      7.072010    3.143250    0.195742
O      9.029936    2.797308    1.269753
O      5.502920   -2.876195    0.529696
O      6.321379    0.450062   -0.543850
O     -5.946133   -0.458471    0.722762
H     -8.598876    2.529422    1.133475
H     -6.837077    2.272285    1.038006
H     -7.963546    1.831292   -0.364204
H     -2.928400    0.761447    3.643977
H     -1.150122    0.800102    3.526071
H     -2.017295   -0.707761    3.152148
H     -9.285706   -1.529109   -1.959746
H     -9.344796    0.245482   -2.026132
H     -9.797298   -0.540062   -0.493191
H     -3.009250   -1.712832   -1.493929
H     -1.873545   -0.382092   -0.967229
H     -2.075531   -1.958192   -0.024873
H      0.150675   -0.841076   -2.086872
H      0.836614    0.221871   -3.414933
H     -0.396278    0.910079   -2.295708
H     -7.698430    0.439247    2.326972
H     -9.123588    0.255684    1.273008
H     -0.526048   -0.542705    1.003162
H     -7.122700   -0.672023   -2.986019
H     -0.448802    2.413337    0.574869
H      3.767201   -0.073125    1.064961
H     -4.849870    0.278470   -1.907176
H     -4.911447   -1.489032   -2.227230
H      3.914276   -0.832931   -1.835160
H     -4.372423    0.612063    1.620699
H      7.916124    0.405335    1.569195
H      9.201252   -0.499912    0.696390
H      8.389056    1.895984   -1.839344
H      9.547230    1.222117   -0.673226
H     -2.256690    1.959121    1.724136
H      2.342425    1.240161   -2.021263
H      7.915249   -0.530023   -1.344184
H      2.051609    2.018399    0.275272
H      1.340626   -1.038118   -0.100569
H      7.858441   -2.332393    0.191683
H     -7.592896   -1.577017    0.899339
H     -5.174192   -2.140787   -0.083990
H      6.185921   -1.391275   -1.334699
H      5.441986   -1.101774    1.620531
H      6.917283   -2.771228    2.428147
H      8.884095    3.597130    1.894090
H      4.740701   -2.898934   -0.086696
