46

C      6.305176    1.630862   -0.315357
C     -4.819494    1.407223    0.141893
C      6.491058    0.428114    0.188860
C      5.344133   -0.448879    0.465638
C      4.042688    0.227574    0.113257
C      2.857946   -0.702991    0.402535
C      1.596960    0.045402    0.024594
C     -3.257242   -2.570559   -1.159065
C      0.390332   -0.829069    0.290247
C     -4.124568   -1.373986   -0.850119
C     -2.483576    1.501963    1.043661
C     -1.108641    1.135962    0.682137
C     -1.850862   -2.218959   -0.729158
C     -3.575520    0.627526    0.552020
C     -0.898793   -0.112973   -0.076612
C     -3.141585   -0.305274   -0.557707
N     -1.999523   -1.029310    0.029183
H      5.315643    1.986402   -0.530795
H      7.149659    2.261125   -0.512677
H     -4.593717    2.272875   -0.479779
H     -5.335903    1.686460    1.098836
H     -5.467420    0.679715   -0.392140
H      7.498446    0.068740    0.406978
H      5.312687   -0.721525    1.552642
H      5.439583   -1.385530   -0.129372
H      4.049174    0.455326   -0.957036
H      3.923762    1.179453    0.686365
H      2.879600   -0.981252    1.479423
H      3.015113   -1.600173   -0.235701
H      1.694088    0.319608   -1.037772
H      1.550528    0.936019    0.684688
H     -3.222542   -2.778635   -2.253269
H     -3.673242   -3.426563   -0.587743
H      0.346087   -1.003713    1.387913
H      0.467145   -1.792735   -0.234938
H     -4.881184   -1.554946   -0.086791
H     -4.656137   -1.096549   -1.806290
H     -2.698152    2.544458    0.659043
H     -2.611581    1.616824    2.161478
H     -0.591778    1.966190    0.113988
H     -0.495389    1.061838    1.629856
H     -1.512169   -3.033609   -0.042944
H     -1.146857   -2.151033   -1.574274
H     -3.923334   -0.046382    1.389895
H     -0.794703    0.124945   -1.176983
H     -2.805896    0.252689   -1.458611
