40

C      3.631363    0.979652   -1.517523
C     -3.590348    1.883155    0.217728
C      2.905781    1.427774   -0.519470
C     -2.891554    0.521425    0.146977
C     -0.598028   -2.909346   -0.858938
C      0.818886   -2.894922   -0.349973
C      2.701683    0.688621    0.757611
C     -1.181949   -1.505621   -0.966870
C     -0.962621    1.417992    1.378956
C      0.518810    1.713801    1.096352
C      1.337028   -1.466597   -0.586570
C     -1.409143    0.676136    0.103861
C      1.263929    0.379849    1.025749
C     -0.726862   -0.671371    0.200130
N      0.671118   -0.607967    0.265902
H      4.154684    0.032918   -1.519328
H      3.729977    1.578495   -2.412895
H     -3.519739    2.309134    1.224937
H     -4.659524    1.697846    0.009712
H     -3.185085    2.534998   -0.582363
H      2.416945    2.394565   -0.605312
H     -3.259572   -0.088038    0.970281
H     -3.246154    0.102217   -0.840322
H     -1.275065   -3.507226   -0.233711
H     -0.600560   -3.372974   -1.866378
H      0.833675   -3.095694    0.743333
H      1.420737   -3.621572   -0.898868
H      3.128819    1.348327    1.553433
H      3.352939   -0.228491    0.789853
H     -2.289141   -1.645045   -0.934677
H     -0.929241   -1.062978   -1.938666
H     -1.059033    0.710282    2.226170
H     -1.500068    2.353073    1.510826
H      0.896259    2.236797    1.990659
H      0.556634    2.284395    0.169348
H      2.441424   -1.467388   -0.561557
H      1.079421   -1.256689   -1.666683
H     -1.087352    1.256104   -0.765414
H      1.239173    0.024018    2.107632
H     -1.128244   -1.149660    1.136067
