79

C     -7.313127    1.487482   -2.448887
C     -6.525692    1.736992   -0.012132
C      2.240409   -0.507521   -2.000467
C      5.740421   -1.577437    3.029270
C      7.636624   -1.625864    0.935872
C     -4.882755   -3.618340    1.032023
C      0.267094    1.270269    1.891411
C     -2.455554    0.422228    1.625250
C      5.891880    1.224205   -2.646537
C     -3.852056    1.340877   -0.806719
C     -4.931880    1.314606   -1.824295
C      0.479721    1.098399   -2.406556
C     -0.656904    1.423072   -1.393403
C     -0.598978   -1.729906    1.368499
C     -3.115922    0.042359   -0.699172
C      0.660585   -0.983618    1.082086
C      2.853402    1.465072    0.328107
C     -6.188290    1.506673   -1.441605
C      1.509740    0.468631   -1.527768
C      5.472796   -0.794790    1.795482
C      6.386967   -0.815484    0.784940
C     -3.675466   -3.061676    0.372461
C      4.039484    0.694571    0.525175
C      1.568222    1.045594   -0.140996
C     -0.715944    0.418193   -0.298704
C     -1.758434   -1.546532    0.474344
C      4.309877   -0.039250    1.653918
C      5.036288    0.601647   -0.437182
C      0.469555    0.435415    0.686290
C     -1.977400    0.019871    0.285602
O     -3.358505   -3.448757   -0.768964
O      3.542539   -0.089430    2.650004
O      4.912584    1.298463   -1.658797
O      6.127047   -0.111608   -0.293932
O     -2.901630   -2.110826    1.029642
H     -7.442002    2.540721   -2.773877
H     -7.054781    0.801160   -3.280843
H     -8.217645    1.189397   -1.906901
H     -6.189645    0.869866    0.627536
H     -6.079111    2.662022    0.398636
H     -7.625538    1.759721    0.122625
H      3.011345   -1.057037   -1.501390
H      2.101603   -0.868352   -3.041775
H      5.079286   -1.198817    3.848124
H      6.776661   -1.285513    3.364935
H      5.656820   -2.671182    2.888177
H      7.442160   -2.494121    1.595431
H      8.351113   -0.960468    1.488434
H      8.032153   -1.893546   -0.053069
H     -5.700603   -3.564061    0.263685
H     -5.180456   -3.013083    1.888393
H     -4.701955   -4.659973    1.354686
H     -0.086647    2.309430    1.688928
H     -0.222616    0.783264    2.754890
H      1.306123    1.459020    2.315348
H     -2.265796   -0.301827    2.435061
H     -2.305833    1.485987    1.901237
H     -3.601455    0.372884    1.590862
H      6.635293    2.043414   -2.596741
H      6.483697    0.273519   -2.493505
H      5.440211    1.109473   -3.662199
H     -3.191344    2.172781   -1.048557
H     -4.354118    1.604832    0.170579
H     -4.735771    1.139408   -2.880040
H      0.146042    0.461487   -3.214242
H      0.844780    2.054617   -2.834708
H     -1.539041    1.235504   -2.064675
H     -0.698611    2.467459   -1.130481
H     -0.311864   -2.835803    1.260449
H     -0.858586   -1.680256    2.458669
H     -3.906550   -0.721395   -0.412918
H     -2.794073   -0.300624   -1.704771
H      1.256188   -1.576271    0.357727
H      1.222577   -1.060697    2.060807
H      2.735815    2.181191    1.212595
H      3.164978    2.289969   -0.449222
H      1.071111    2.090823   -0.305227
H     -0.389707   -0.532384   -0.909724
H     -1.540908   -1.936116   -0.527210
