24

C     -3.017752   -0.381642   -0.991488
C     -3.606839    0.787123   -0.591814
C     -1.681623   -0.619269   -0.662174
C     -2.907135    1.727717    0.125886
C      0.876046   -1.346229   -0.124515
C     -0.962819    0.305769    0.054007
C     -1.576843    1.470077    0.442902
C      0.446930    0.021006    0.382574
C      3.245396   -0.774487   -0.165199
Cl    -0.724761    2.690090    1.355936
N      3.173805   -0.297414   -1.340348
O      0.569207   -0.032868    1.785719
O      4.335034   -0.451068    0.640819
O      2.212248   -1.607173    0.255293
H     -3.553084   -1.127755   -1.554825
H     -4.641368    1.012662   -0.825442
H     -1.257734   -1.553811   -0.997653
H     -3.387840    2.650451    0.436095
H      0.766666   -1.345889   -1.210270
H      0.220736   -2.148261    0.273906
H      1.139708    0.795383    0.045298
H      3.901602    0.325168   -1.718324
H      1.477042   -0.439192    1.943440
H      4.953380    0.339611    0.403857
