79

C      7.832867    1.102570   -2.267197
C     -6.097188    1.100015    0.819388
C     -3.486934    3.476255    1.714102
C     -4.674769   -3.546335   -0.254585
C     -0.961225   -3.815298   -0.973001
C     -3.694545   -3.503320   -1.148307
C     -1.434662   -2.583267   -1.602809
C     -5.241928   -2.231575    0.186763
C      0.319076   -3.997950   -0.700805
C      4.093310   -0.899804    0.324482
C      3.428660   -0.971912    1.469413
C      7.729029    1.062137    0.163210
C      7.027158    0.871841    1.431157
C     -4.356476    2.504709   -0.325333
C      5.677174    0.531311   -0.981793
C     -4.350886   -0.002332   -0.522004
C     -2.218493    3.935204   -0.289494
C      1.180915    0.382707    0.411548
C      7.110760    0.906757   -0.989135
C     -4.644535    1.187107    0.401448
C     -3.361860    3.309629    0.415190
C     -2.855151   -2.274450   -1.172523
C      5.476212   -0.361283    0.227012
C     -4.143228   -1.204932    0.370696
C      2.074310   -1.480076    1.678251
C     -1.289968    2.897976   -0.888674
C      1.083376   -1.139419    0.597028
C     -0.069762    0.868986   -0.269460
C      1.374561   -3.035257   -0.981719
C     -0.578368    2.143840    0.187567
O      1.593319   -0.831676    2.850140
O     -0.348128    3.602632   -1.659584
O      2.404841   -3.500963   -1.597757
O      5.774507    0.334540    1.369165
O     -2.891388   -1.724749    0.107044
O      1.354207   -1.706198   -0.647557
O     -1.202593    0.878827    0.512627
H      8.832014    0.584412   -2.260662
H      7.288531    0.639500   -3.127356
H      8.038657    2.171441   -2.492574
H     -6.145522    0.813031    1.904519
H     -6.653590    0.310072    0.281791
H     -6.573369    2.099020    0.756067
H     -2.792839    4.054260    2.314853
H     -4.314987    3.023404    2.228420
H     -5.037512   -4.495139    0.128698
H     -1.681097   -4.600366   -0.720787
H     -3.526120   -4.337348   -1.825089
H     -1.505941   -2.795778   -2.709715
H     -0.811017   -1.703309   -1.499950
H     -5.915895   -1.893533   -0.625525
H     -5.872290   -2.340510    1.092388
H      0.580560   -4.962081   -0.226244
H      3.603208   -1.250029   -0.571691
H      4.012451   -0.592782    2.336002
H      8.772921    1.334784    0.190486
H      6.933037    1.874748    1.940708
H      7.683013    0.216000    2.076673
H     -5.313293    3.076443   -0.482171
H     -3.909118    2.236040   -1.319940
H      5.364549    0.010369   -1.896928
H      5.109343    1.495489   -0.825935
H     -5.187369   -0.156584   -1.232536
H     -3.457038    0.270416   -1.108032
H     -2.631790    4.546884   -1.133585
H     -1.614645    4.563017    0.396764
H      1.277901    0.798452    1.441778
H      2.084428    0.565852   -0.185354
H     -3.993500    1.156314    1.289142
H     -3.341276   -1.592865   -1.926791
H      6.149334   -1.232359    0.107456
H     -4.149580   -0.932160    1.457229
H      2.007659   -2.557844    1.900747
H     -1.819398    2.180297   -1.537087
H      0.039009   -1.308044    0.940217
H     -0.106805    0.641850   -1.344773
H     -0.157237    2.688482    1.066344
H      1.828338   -1.386103    3.630061
H     -0.725921    4.500018   -1.927885
