50

C      4.754468   -2.772443   -2.144652
C      4.760791    1.707702    0.011078
C     -1.306397    1.386549   -1.893110
C     -3.147120    3.517167    2.033535
C     -3.257743   -3.082445   -1.095195
C     -3.778704    2.685950    1.138868
C     -1.821188    3.293008    2.311093
C     -3.541900   -2.443701    0.111911
C     -2.236651   -2.584517   -1.875928
C     -3.092094    1.654810    0.539202
C     -1.129971    2.240392    1.695179
C     -2.845401   -1.340796    0.550959
C     -1.551015   -1.477603   -1.416427
C      4.732445   -0.535434   -1.057839
C      4.076022   -1.712798   -1.353648
C      4.089930    0.429328   -0.327803
C     -1.742411    1.403224    0.802895
C     -1.834797   -0.849913   -0.224611
C      0.163315   -0.148153    1.013981
C     -0.261801   -0.779005    2.257027
C      2.174112   -0.940226   -0.195892
C     -1.005044    0.321059    0.158925
N      2.813956   -1.872696   -0.909264
N      2.815369    0.203523    0.090003
O      0.025380   -1.971560    2.501024
O     -0.991255   -0.075480    3.192789
O     -0.434080    0.839428   -0.995714
O      0.879927   -1.133248    0.246069
H      5.827211   -2.521119   -2.234031
H      4.717076   -3.723936   -1.552854
H      4.314296   -2.882027   -3.152540
H      5.697825    1.416469    0.570299
H      4.987419    2.323222   -0.869422
H      4.110868    2.295098    0.691126
H     -0.685090    1.731416   -2.767664
H     -2.107583    0.767693   -2.276751
H     -1.786879    2.294924   -1.414754
H     -3.675210    4.345939    2.523938
H     -3.807356   -3.950124   -1.438191
H     -4.829215    2.881208    0.932925
H     -1.335454    3.952581    3.015678
H     -4.347015   -2.851990    0.708335
H     -2.020082   -3.082015   -2.809477
H     -3.613550    1.033101   -0.146881
H     -0.094233    2.178678    1.993196
H     -3.059719   -0.840070    1.485778
H     -0.745969   -1.140583   -2.082583
H      5.746658   -0.408329   -1.415488
H      0.873130    0.690357    1.108714
H     -1.475272   -0.472612    3.966191
