59

C      4.307580   -2.269676    1.372066
C      6.740894    2.274369    1.597580
C     -7.887853    3.326820    0.828567
C     -4.891535    0.360615   -0.690315
C     -3.656235    1.834333    0.667997
C     -3.894817   -0.597361   -0.573068
C     -2.653187    0.878892    0.789928
C     -1.005852   -1.575630   -1.075265
C     -5.886427    2.608840   -0.217874
C     -1.515441   -3.668324   -0.221987
C      3.224786   -1.237176    1.342733
C      5.290930    1.888166    1.392097
C     -4.796535    1.597717   -0.073581
C     -2.767572   -0.349442    0.166464
C     -0.272880   -2.898870   -0.806770
C     -1.723774   -1.398348    0.269042
C      5.135699    0.439382    1.019675
C      3.695271    0.077738    0.821184
C      2.901741   -1.152700   -0.934723
C      2.324417   -1.680163    0.141865
C      5.302071    0.253258   -0.457646
C      2.531767   -1.223755   -2.340523
N     -6.800302    2.386336    0.893098
N     -2.242007   -2.698173    0.530892
N      4.065300   -0.391109   -0.538106
O      4.524241    2.250824    2.498085
O      6.246614    0.596196   -1.210341
O      3.280543   -0.599327   -3.186275
O      1.490783   -1.865257   -2.928120
S      0.939701   -2.670064    0.405347
H      3.822272   -3.276265    1.355667
H      4.878278   -2.180998    0.423304
H      4.935719   -2.236076    2.266447
H      7.072844    2.113751    2.651237
H      6.830300    3.376346    1.418288
H      7.393197    1.724266    0.889526
H     -8.339692    3.495196    1.841094
H     -7.526473    4.318657    0.473230
H     -8.721782    2.952755    0.178606
H     -5.779016    0.148266   -1.280374
H     -3.543663    2.796098    1.168932
H     -4.079498   -1.535759   -1.104248
H     -1.749751    1.068655    1.378527
H     -0.306430   -0.736081   -1.240816
H     -1.698567   -1.766169   -1.903418
H     -6.409102    2.396121   -1.194504
H     -5.472216    3.620378   -0.184223
H     -1.163362   -4.481162    0.438859
H     -2.075681   -4.130117   -1.057765
H      2.609202   -1.177664    2.237058
H      4.913214    2.489228    0.528782
H     -0.026401   -3.404758   -1.752981
H     -0.948139   -1.140269    0.993420
H      5.740115   -0.211960    1.641855
H      2.959058    0.876028    0.834550
H     -7.205113    1.425595    0.823965
H     -3.261447   -2.718421    0.336857
H      4.196937    3.191676    2.418104
H      0.947277   -1.495430   -3.723551
