39

C     -3.590617   -0.813120    0.079431
C      3.754783   -1.053411   -0.560356
C      3.772653    1.245083    0.184230
C     -1.937500    2.444563    1.106503
C     -2.049504    1.863427   -1.232187
C     -1.105501   -1.363239   -1.244791
C     -2.485162   -1.063163    0.730778
C      1.215422   -1.647623    0.319494
C     -0.164043   -1.791351    0.926962
C      0.718070    0.734151   -0.253396
C      3.077072   -0.070147   -0.009819
C     -1.554644    1.626708    0.144794
C      1.679500   -0.208615    0.415898
C     -0.639612    0.515063    0.408399
C     -1.142203   -0.853539    0.148415
H     -3.697993   -0.436954   -0.925311
H     -4.549994   -1.004445    0.606645
H      4.784562   -0.896386   -0.857874
H      3.269535   -2.023711   -0.711108
H      4.798417    1.049769    0.588811
H      3.243542    1.814294    0.960662
H      3.892212    1.802604   -0.751905
H     -1.626893    2.349566    2.141900
H     -2.599305    3.262980    0.867680
H     -1.778602    2.920514   -1.475209
H     -1.692192    1.149886   -1.974506
H     -3.173950    1.887576   -1.155199
H     -0.954714   -2.469364   -1.302758
H     -0.374920   -0.849226   -1.921587
H     -2.086751   -1.195171   -1.721675
H     -2.574697   -1.447065    1.760749
H      1.254877   -2.053160   -0.707263
H      1.907795   -2.252517    0.935087
H     -0.138887   -1.406210    1.954238
H     -0.495710   -2.826467    0.813544
H      0.703318    0.711471   -1.336498
H      1.092258    1.767444    0.013620
H      1.627294    0.038168    1.518767
H     -0.377918    0.541618    1.514836
