49

C      4.242762   -2.072911    2.016546
C      3.972389   -2.957799    0.997379
C      4.007390   -0.709074    1.864438
C      3.462267   -2.485805   -0.187754
C     -5.535140    0.002073    0.586165
C     -3.793940   -1.469340    1.157882
C      3.223261    1.173538    0.455236
C     -6.473256   -0.836399    1.149468
C     -4.723103   -2.321679    1.727532
C      3.721843    1.542478   -0.920958
C     -2.037536    0.194603   -0.629270
C     -1.413737    2.482362   -1.165750
C      0.090116    0.629402   -1.825785
C     -3.433821    1.992639   -0.028514
C      2.138089    1.399732   -2.849027
C     -1.158832    1.131670   -1.186730
C     -4.174634   -0.280915    0.569860
C      3.499249   -0.264073    0.675557
C     -3.205354    0.626283   -0.033894
C     -6.067812   -2.018738    1.731151
C      3.143477    0.684706   -2.012210
C      3.214694   -1.134566   -0.376465
F     -6.985492   -2.847035    2.286567
N     -2.572961    2.873272   -0.571456
N      0.928730    1.722750   -2.180721
O      2.711404   -0.566420   -1.511498
Cl     0.684861    0.000000    0.000000
H      4.649121   -2.392020    2.982447
H      4.157259   -3.992105    1.130022
H      4.213521   -0.013701    2.647860
H      3.231831   -3.143034   -1.022168
H     -5.854536    0.938270    0.125581
H     -2.741469   -1.720799    1.162528
H      3.758000    1.810206    1.191845
H      2.135964    1.402030    0.575303
H     -7.536562   -0.614509    1.161949
H     -4.406415   -3.247445    2.182995
H      3.545798    2.625535   -1.124207
H      4.834660    1.400659   -0.880347
H     -1.824353   -0.861882   -0.652572
H     -0.738563    3.195037   -1.595748
H      0.601726    0.056727   -0.994694
H     -0.083533   -0.098570   -2.619918
H     -4.368564    2.317810    0.449996
H      2.657758    2.340811   -3.204943
H      1.908135    0.743742   -3.726508
H      4.007553    0.424609   -2.704969
H      1.072616    2.337873   -1.347128
H     -0.684861    0.000000    0.000000
