69

C      2.605229    0.136067   -1.603880
C     -5.945980   -1.399774   -1.737997
C     -6.834690   -0.421063   -1.090377
C      6.250027   -0.027777    0.643989
C     -2.898770   -0.981665    2.963796
C     -2.097861   -0.635724    4.025682
C      5.129468    0.029826   -0.049831
C      0.685505   -1.702263    0.054821
C      8.773206    0.250992    0.485047
C     -0.552815   -1.656358   -0.749731
C     -1.556208    1.930844   -0.154967
C     -2.592309    1.890628   -1.197142
C      9.644294    0.576743   -0.506471
C     -3.407068   -0.924500    0.474509
C     -4.724038    0.943414   -1.397964
C      7.670775    0.600497   -1.373665
C     -5.678465   -0.007385   -2.024862
C      7.507089    0.257263   -0.035507
C     -2.598144   -0.598810    1.650651
C      1.334287   -0.447677    0.478083
C     -0.961409    0.111869    3.800745
C     -2.806835   -0.475475   -0.794335
C      3.836932   -0.230836    0.518469
C     -1.456058    0.135585    1.533200
C     -0.601566    0.529211    2.510343
C      0.502138    0.791701    0.556264
C     -0.930837    0.623989    0.241266
C     -1.288066   -0.384064   -0.802554
N      2.615922   -0.180065   -0.202181
N     -3.342464    0.686631   -1.418043
O     -0.133094    0.476664    4.852887
O      3.782862   -0.529653    1.763611
O     -0.931070    0.217305   -2.045361
O      8.951713    0.778408   -1.599889
O      0.421990    1.259755    1.930292
Cl     0.687607    0.000000    0.000000
H      3.529139   -0.224771   -2.101054
H      2.525578    1.206842   -1.826195
H      1.781777   -0.357371   -2.159747
H     -6.460416   -1.957515   -2.598737
H     -5.232799   -2.043947   -1.259681
H     -7.874762   -0.306721   -1.453424
H     -6.739605   -0.288450   -0.016058
H      6.240484   -0.277849    1.674233
H     -3.807313   -1.574368    3.114178
H     -2.341340   -0.939478    5.040692
H      5.195627    0.289246   -1.094784
H      0.510770   -2.405200    0.934590
H      1.482904   -2.286958   -0.516633
H      9.039535    0.027575    1.497021
H     -1.202876   -2.529766   -0.421240
H     -0.283592   -2.029219   -1.794606
H     -1.968243    2.359217    0.814924
H     -0.708327    2.637005   -0.410795
H     -3.353397    2.690925   -0.928760
H     -2.217873    2.310155   -2.196458
H     10.739133    0.661930   -0.426937
H     -3.635261   -2.040675    0.470969
H     -4.448614   -0.496692    0.554374
H     -5.093326    1.277242   -0.374883
H     -4.860234    1.930310   -1.956505
H      6.900352    0.707556   -2.112371
H     -6.121513    0.436349   -2.987814
H      1.654859   -0.656229    1.554238
H     -3.001254   -1.321760   -1.545474
H      0.919907    1.663521    0.015541
H      0.700413    1.021525    4.704391
H     -0.243423    0.893266   -1.891896
H     -0.687607    0.000000    0.000000
