59

C      2.956431   -1.234064   -0.968476
C      6.572602   -0.141825    2.225186
C     -6.151440    0.172950    1.171398
C     -7.224599   -0.120116    0.161549
C     -2.024541    0.151357   -1.411004
C     -5.733037   -1.905211    0.145001
C     -0.965985   -0.465273    0.571098
C      2.715792   -0.107438    0.001699
C      6.172372   -0.887028    0.979219
C     -5.018612   -0.756970    0.781396
C     -0.621781   -0.182066   -0.874838
C     -2.930513   -0.792440   -0.639411
C      5.284356   -0.072752    0.080262
C      3.987144    0.389243    0.642613
C      2.983370    2.027053   -0.686876
C     -4.106223   -0.013528   -0.152906
C      2.060005    1.053739   -0.588942
C      5.592236    1.407041    0.112059
C      2.756456    3.357665   -1.222035
N     -7.003311   -1.451627   -0.326335
N     -2.144623   -1.324644    0.420638
N      4.227675    1.579388   -0.194297
O      7.314959   -1.215129    0.249589
O     -4.846329    0.496999   -1.221028
O      6.594483    2.139581    0.315939
O      3.690599    4.181941   -1.263912
O      1.507652    3.702946   -1.681604
S      0.368653    1.275393   -1.127250
Cl     0.691888    0.000000    0.000000
H      3.771042   -1.864049   -0.541305
H      2.060382   -1.888899   -1.009766
H      3.233720   -0.874679   -1.978222
H      7.228679    0.709963    2.052940
H      5.671325    0.078361    2.831336
H      7.166780   -0.873487    2.845319
H     -6.473307    0.031733    2.215847
H     -5.822844    1.228749    1.014662
H     -8.217818   -0.026945    0.651692
H     -7.209731    0.587739   -0.697253
H     -2.082424    0.008348   -2.500948
H     -2.219564    1.208957   -1.102410
H     -5.868857   -2.686794    0.944522
H     -5.154320   -2.401471   -0.660633
H     -1.221046    0.480966    1.048235
H     -0.203401   -1.065571    1.061289
H      2.092340   -0.485443    0.837307
H      5.702779   -1.830210    1.301674
H     -4.516124   -1.026791    1.726734
H     -0.289565   -1.070899   -1.422022
H     -3.221011   -1.583053   -1.382730
H      5.196866   -0.413259   -0.953036
H      3.944262    0.600171    1.716023
H     -3.719239    0.870576    0.403178
H     -7.760124   -2.085308    0.064866
H     -2.600273   -1.486496    1.316835
H      7.690606   -0.405898   -0.206971
H     -4.434422    0.330999   -2.086717
H      1.241496    4.667504   -1.915287
H     -0.691888    0.000000    0.000000
