37

C     -0.520664   -2.395620   -0.294855
C      0.444234   -0.375857    0.890650
C      2.416983    0.801413    0.738947
C      2.198663   -1.076307   -0.639424
C     -1.674203    1.104346    0.181841
C     -2.978989   -0.730435   -0.394421
C     -0.754123   -1.088712    0.392657
C      3.453917    1.372588   -0.125487
C      3.660190   -0.834106   -0.655224
C     -2.786161    1.933152   -0.317384
C     -3.704986    0.131336   -1.398340
N      4.099196    0.497752   -0.852393
N     -3.758339    1.512039   -1.062176
N      1.436853    0.015875   -0.046247
N     -1.624003   -0.230111   -0.397102
O      3.733965    2.712565   -0.177968
O      4.462712   -1.773995   -0.500418
O     -2.751576    3.282326    0.068017
O     -4.210574   -0.332644   -2.429829
Cl     0.686932    0.000000    0.000000
H     -0.046107   -2.340979   -1.279406
H     -1.495531   -2.916875   -0.477385
H      0.003439   -3.094229    0.420192
H      0.133684    0.533890    1.456809
H      0.969677   -0.996121    1.680001
H      2.902321    0.040785    1.407575
H      1.915400    1.534653    1.384723
H      2.036979   -2.009375   -0.103070
H      1.931710   -1.161525   -1.738491
H     -0.732774    1.681018   -0.017199
H     -1.837650    1.016356    1.296384
H     -3.110857   -1.768280   -0.670688
H     -3.479330   -0.539152    0.590140
H     -1.370074   -1.338133    1.309647
H      4.655023    3.016812   -0.422316
H     -3.619005    3.815550    0.033408
H     -0.686932    0.000000    0.000000
