69

C     -3.162988   -1.293152   -1.998562
C      5.743209    3.179227    1.323407
C      5.211076    2.694586    0.003108
C     -5.179008    1.699185    0.094705
C      2.870643   -3.394365   -1.048363
C      1.849622   -4.340494   -1.210317
C     -4.525666    0.759099   -0.557188
C     -0.261707    0.676938   -1.535627
C     -7.468280    1.075667   -0.769441
C      1.239613    0.407012   -1.429032
C      1.175672   -0.894873    2.128815
C      2.164266    0.126386    2.587132
C     -8.720225    1.589989   -0.543157
C      3.564272   -1.171305   -0.202089
C      3.818151    1.651663    1.970033
C     -7.398634    2.798827    0.637996
C      5.092624    1.824990    1.177640
C     -6.618290    1.857028   -0.007467
C      2.560734   -2.224641   -0.415435
C     -0.966108   -0.530053   -1.019884
C      0.561301   -4.117580   -0.751687
C      3.001828    0.123365    0.327647
C     -3.086580    0.612795   -0.444226
C      1.292744   -2.045175    0.017207
C      0.255711   -2.918110   -0.105689
C     -0.649376   -0.911477    0.387254
C      0.806375   -0.822871    0.703468
C      1.538748    0.323948    0.056290
N     -2.404393   -0.395058   -1.148620
N      3.297294    0.293219    1.727369
O     -0.452847   -5.047419   -0.908139
O     -2.472772    1.433882    0.319677
O      1.148830    1.538131    0.609389
O     -8.627740    2.604525    0.293483
O     -0.849395   -2.337882    0.470894
Cl     0.687195    0.000000    0.000000
H     -3.810153   -1.911963   -1.333758
H     -2.509867   -1.979858   -2.554022
H     -3.795503   -0.724619   -2.690808
H      6.837093    3.140373    1.493417
H      5.180297    3.972038    1.870475
H      6.013638    2.395445   -0.729762
H      4.361526    3.221298   -0.465658
H     -4.582858    2.360361    0.723465
H      3.860124   -3.612946   -1.424460
H      2.036325   -5.297379   -1.711010
H     -5.100847    0.090159   -1.189724
H     -0.565241    0.832484   -2.587645
H     -0.543888    1.550821   -0.933668
H     -7.177568    0.252849   -1.392425
H      1.455175   -0.522451   -1.963971
H      1.769422    1.281767   -1.828715
H      1.583161   -1.911914    2.409674
H      0.252552   -0.780390    2.741940
H      2.565929   -0.244658    3.574161
H      1.665596    1.080889    2.827785
H     -9.627132    1.220170   -0.981132
H      4.150777   -1.047281   -1.130195
H      4.279739   -1.551267    0.562445
H      3.069569    2.402654    1.573382
H      3.974887    1.840246    3.037739
H     -7.013937    3.552781    1.308037
H      5.750209    0.921568    1.259677
H     -0.648219   -1.401766   -1.674636
H      3.531554    0.934701   -0.226399
H     -1.294285   -0.400708    1.130666
H     -0.246257   -5.931487   -1.381014
H      0.229475    1.442079    0.945548
H     -0.687195    0.000000    0.000000
