37

C      1.122012   -1.632694   -0.500821
C     -0.643333   -0.539160    0.956288
C     -2.147855    0.829285   -0.468021
C     -2.478338   -1.484187   -0.099809
C      2.871993    0.541077    0.626198
C      1.208837    1.377217   -0.817026
C      0.756463   -0.599944    0.522955
C     -3.575005    1.103970   -0.095193
C     -3.866978   -1.155199   -0.520219
C      3.726909    0.156238   -0.495923
C      2.430017    1.693291   -1.587263
N     -4.384956    0.106605   -0.133173
N      3.513447    0.744761   -1.654039
N     -1.721750   -0.298742    0.183150
N      1.469760    0.651175    0.392545
O     -4.029262    2.345283    0.273555
O     -4.570749   -1.953625   -1.193738
O      4.751149   -0.788995   -0.422356
O      2.519146    2.783920   -2.180059
Cl     0.683048    0.000000    0.000000
H      0.710263   -1.460721   -1.497354
H      0.672315   -2.604497   -0.138421
H      2.206003   -1.797618   -0.463807
H     -0.648545    0.215897    1.817069
H     -0.853480   -1.497447    1.547962
H     -2.194607    0.636154   -1.583091
H     -1.617376    1.763535   -0.343611
H     -2.512976   -2.090020    0.827642
H     -2.001584   -2.036621   -0.917347
H      3.230187    1.463118    1.145417
H      2.991349   -0.284822    1.397082
H      0.705354    2.320560   -0.560321
H      0.500812    0.780367   -1.440577
H      1.291357   -1.041954    1.458057
H     -4.925181    2.515593    0.710821
H      5.494602   -0.761801   -1.115281
H     -0.683048    0.000000    0.000000
