32

C     -2.859189   -2.231150   -0.218272
C     -3.620007    0.710217   -0.384709
C      3.739883    0.870263    1.051712
C      0.972730    0.480124   -1.368975
C      0.349659    0.075292    0.984071
C      2.130163    1.110321   -0.631039
C      1.744373   -0.476846    1.131268
C     -0.679179   -1.245440   -0.887630
C     -2.046108   -1.210549   -0.331386
C     -2.289077    0.202545    0.061770
C     -0.133462    0.092949   -0.438543
N      2.715728    0.179447    0.312018
O     -1.241210    0.926606   -0.535352
H     -3.836254   -2.092616    0.203077
H     -2.554647   -3.205293   -0.544269
H     -4.141122    1.180387    0.497083
H     -4.263119   -0.061622   -0.830339
H     -3.457929    1.551986   -1.097188
H      4.194863    1.644527    0.393860
H      3.363725    1.360467    1.967158
H      4.507076    0.104768    1.330178
H      1.326997   -0.391773   -1.933374
H      0.563806    1.284836   -2.040599
H     -0.311837   -0.444196    1.674493
H      0.398117    1.148646    1.331425
H      2.911935    1.354153   -1.376872
H      1.726365    2.010680   -0.117014
H      1.744954   -1.592895    0.989249
H      2.033809   -0.327316    2.198295
H     -0.760514   -1.195693   -1.998838
H     -0.080628   -2.094646   -0.550873
H     -2.149904    0.281821    1.159615
