50

C      3.979054   -2.628615    1.250957
C     -4.973487   -2.045921    1.848279
C     -4.939355   -3.188894    1.074328
C     -4.125061   -1.001092    1.576201
C     -4.039541   -3.233950    0.040309
C      0.993949   -0.892843   -0.114355
C      1.928918   -2.035511    0.250154
C      0.711964    3.842782   -0.594580
C     -3.128473    1.402218    0.557899
C      3.785927   -0.963194   -0.490884
C     -3.190079   -1.013629    0.525784
C      1.617898    0.255650   -0.822099
C     -3.181713   -2.148150   -0.219906
C      1.441406    2.700921   -0.822918
C     -0.592389    3.837235   -0.194472
C     -2.534132    2.615804    0.390614
C      3.086302    0.405911   -0.615975
C     -2.416721    0.200238    0.324107
C      0.812320    1.462304   -0.635138
C     -1.214940    2.624817   -0.012099
C     -0.509210    1.434928   -0.236535
Cl    -2.148873   -2.238630   -1.636756
N      3.212080   -1.553802    0.694845
O      2.763055    2.808446   -1.228964
O     -1.322519    5.005142    0.038373
O     -3.138681    3.710437    0.587989
O      3.461125    1.062382    0.540090
O     -1.200452    0.336806   -0.042744
Cl     0.683973    0.000000    0.000000
H      4.056015   -3.507275    0.598493
H      5.005365   -2.247886    1.470899
H      3.512341   -2.872155    2.239976
H     -5.694952   -2.016277    2.669524
H     -5.608545   -4.017876    1.286545
H     -4.155135   -0.117527    2.193564
H     -4.001951   -4.113379   -0.570617
H      0.204661   -1.392106   -0.679303
H      0.653652   -0.505387    0.896586
H      2.094188   -2.610804   -0.685534
H      1.412931   -2.636322    1.003940
H      1.212523    4.799038   -0.742953
H     -4.161417    1.355794    0.866739
H      3.605388   -1.540937   -1.400266
H      4.852847   -0.718382   -0.338003
H      1.507738    0.005798   -1.930988
H      3.597188    0.791444   -1.548672
H      3.153008    3.725387   -1.345394
H     -0.837599    5.891467   -0.104576
H      4.453383    0.965599    0.608677
H     -0.683973    0.000000    0.000000
