36

C     -3.734070    0.926273    1.743487
C      1.927067   -0.697102    1.255241
C      2.483161   -1.729000   -0.816874
C     -0.740652   -0.665004   -2.166177
C      2.631747   -1.695068    1.918270
C      3.180052   -2.716354   -0.165610
C     -2.056955   -0.998853   -2.396054
C     -1.297058    0.335898   -0.109749
C      1.945669    3.401339    0.896472
C      0.499074    2.717163   -0.541693
C      1.845757   -0.703894   -0.116444
C     -0.327372    0.004447   -1.029230
C      3.266148   -2.716985    1.203686
C     -2.994364   -0.646448   -1.446861
C     -2.623827    0.019868   -0.302852
C      1.104242    0.345572   -0.820591
Cl     4.154295   -3.971430    2.074620
N      0.898349    3.772250    0.142276
N      2.140286    2.110416    0.631723
N     -4.339305   -0.809494   -1.345992
N     -4.724591   -0.274469   -0.220081
N     -3.735815    0.243911    0.457250
N      1.271017    1.655517   -0.246980
H     -4.712862    1.454207    1.819187
H     -3.668683    0.213087    2.591696
H     -2.957925    1.716710    1.783378
H      1.424791    0.107623    1.774867
H      2.428792   -1.749837   -1.906964
H      0.019559   -0.931801   -2.900131
H      2.698928   -1.695315    2.989387
H      3.660196   -3.491766   -0.727288
H     -2.401578   -1.516161   -3.266935
H     -0.993290    0.850930    0.769260
H      2.515946    4.042452    1.586508
H     -0.338840    2.686939   -1.253436
H      1.552108    0.404379   -1.857367
