40

C     -4.406561   -2.595555   -0.710067
C      5.161347   -3.200422   -0.871313
C     -0.690653    3.170516    0.932493
C      3.714757    0.010286    0.607745
C     -2.907687   -2.806232   -0.636380
C      4.386505   -1.937565   -0.717323
C     -0.878182    1.718188    0.654121
C     -2.231356   -1.753437    0.186959
C     -0.046009    0.726987    0.520588
C     -0.780688   -1.968129    0.250908
C     -1.863718   -0.486923   -0.470823
C      1.426987    0.912227    0.638800
C     -1.095495    5.344452    0.029752
N     -0.839428    5.842637    1.180565
N     -0.605357   -0.556739    0.269189
O     -2.339810   -2.935761   -1.879532
O      3.649294   -1.509561   -1.651321
O     -0.026995   -2.944336    0.277785
O      1.970637    2.010055    0.868331
O     -1.253083    6.225572   -1.037585
O     -1.201662    3.977763   -0.096639
O      4.426414   -1.171828    0.435257
O      2.314163   -0.159360    0.496426
S     -2.533805    0.992454    0.399652
H     -4.694940   -1.838297   -1.441538
H     -4.860804   -3.581950   -0.937896
H     -4.756002   -2.342422    0.331374
H      4.530965   -4.052896   -0.564900
H      5.426124   -3.352702   -1.950093
H      6.055069   -3.197465   -0.221194
H      0.314124    3.480498    1.185430
H     -1.298590    3.340055    1.874579
H      4.107851    0.761898   -0.108997
H      3.911562    0.407488    1.624818
H     -2.762449   -3.781471   -0.094424
H     -2.742806   -1.589080    1.153892
H     -1.800350   -0.405073   -1.542586
H     -0.701724    5.282515    2.049777
H     -3.068462   -3.228294   -2.509984
H     -1.009178    7.191905   -1.010294
