45

C      4.908825   -1.615049    1.228083
C     -3.715729    0.337059    2.986789
C     -4.432936   -0.853049   -1.546768
C     -4.672127    0.179999    2.006593
C     -5.167010   -0.109277   -0.453170
C     -2.345415    0.378373    2.696448
C      1.436949    0.447294   -1.197654
C      0.083159    0.035962   -1.669904
C      5.671042    0.411057   -1.677870
C     -3.137700   -0.167515   -1.921573
C      4.542477    1.046738   -1.179190
C      2.983916    0.770666    0.716856
C      4.984673   -0.634934    0.124356
C     -4.229364    0.060067    0.683184
C      1.731826    0.088104    0.228204
C     -1.928182    0.258769    1.389178
C     -0.950844    0.092150   -0.629783
C     -0.721324    0.250096    0.714949
C     -2.881753    0.102634    0.416526
C      0.653655    0.374286    1.172807
N      5.924618   -0.631445   -0.848583
N      4.144325    0.389772   -0.081221
N     -2.296994    0.005174   -0.769228
O      0.869346    0.729026    2.384584
H      5.856317   -2.161571    1.342773
H      4.705159   -1.060552    2.152935
H      4.049416   -2.303901    1.012642
H     -4.014330    0.433097    4.018937
H     -5.050357   -0.901478   -2.470006
H     -4.211320   -1.881990   -1.179204
H     -5.732759    0.146259    2.215086
H     -6.068992   -0.670663   -0.180681
H     -5.385683    0.901930   -0.852472
H     -1.584306    0.499222    3.437929
H      1.595210    1.541558   -1.302226
H      2.216123   -0.038781   -1.828217
H      0.110041   -0.999639   -2.068895
H     -0.171858    0.687112   -2.556748
H      6.239625    0.691601   -2.557743
H     -2.661378   -0.785885   -2.708952
H     -3.414911    0.796102   -2.411422
H      4.068377    1.932209   -1.616766
H      3.185212    0.372884    1.749870
H      2.878277    1.870579    0.750308
H      1.936702   -1.014052    0.279240
