84

C     -8.171649   -0.499553   -1.142482
C     -4.255048   -1.944039   -3.908655
C     -6.229782    2.787245    2.166516
C      6.209866   -3.393444    2.080345
C      6.602323    3.334324    2.531068
C      5.631626   -2.447893    2.902871
C      6.266152   -3.179894    0.720396
C      7.160650    2.722622    1.423344
C      5.366505    2.878217    2.939750
C     -2.301267    0.253357    2.092719
C      0.503623    1.528228   -1.199034
C     -2.893923    0.803994    0.972701
C      5.117362   -1.300655    2.351541
C      5.754934   -2.028234    0.127195
C      6.545213    1.709204    0.739136
C      4.707756    1.842737    2.262852
C     -2.550442   -1.041803    2.515901
C      4.801472    0.398156   -1.004552
C      3.153911    0.181617    0.870777
C      1.945282    1.428522   -1.637580
C      3.749908   -0.126752   -1.901486
C      2.259875   -0.471133   -0.155564
C     -0.272561    0.572000   -2.048800
C     -4.020849   -1.245322    0.656523
C     -6.698138   -0.375641   -1.417588
C     -4.768560   -1.099161   -2.794468
C     -3.764105    0.044874    0.246488
C      5.184633   -1.103629    0.971289
C      5.301991    1.262416    1.163744
C     -3.433027   -1.812115    1.779506
C     -5.908380    0.399139   -0.738295
C     -3.978007   -0.307584   -2.096030
C     -4.468739    0.534773   -0.991781
C     -6.447913    1.200683    0.363522
C     -2.546937   -0.268413   -2.419304
C      4.600306    0.160284    0.456271
N     -6.154545   -1.164177   -2.484063
N      2.387077    0.074221   -1.454745
N     -3.711232   -3.140853    2.180545
O     -7.658820    1.133996    0.642049
O     -2.082327   -0.972032   -3.330751
O     -3.131414   -3.682518    3.288143
O     -4.498820   -3.815352    1.501985
O     -5.621103    2.054073    1.123492
O     -1.662942    0.553020   -1.721020
H     -8.267386   -0.931279   -0.126964
H     -8.581403   -1.287926   -1.829366
H     -8.688795    0.456359   -1.275293
H     -5.104793   -2.503893   -4.367742
H     -3.870952   -1.298956   -4.730670
H     -3.546714   -2.722050   -3.582165
H     -5.565520    3.605974    2.516571
H     -6.374580    2.102357    3.032686
H     -7.189874    3.202521    1.858020
H      6.608780   -4.290196    2.540203
H      7.118168    4.135473    3.050569
H      5.588620   -2.622358    3.979681
H      6.715482   -3.909587    0.053732
H      8.127041    3.077664    1.102726
H      4.922158    3.345985    3.800544
H     -1.603931    0.843521    2.684707
H      0.125370    2.581981   -1.309596
H      0.433378    1.255362   -0.145083
H     -2.691550    1.807498    0.658047
H      4.676125   -0.593859    3.037683
H      5.817757   -1.901363   -0.946426
H      6.970268    1.228540   -0.121273
H      3.758772    1.576522    2.675821
H     -2.058433   -1.420719    3.399547
H      4.846335    1.516814   -1.198095
H      5.777739    0.039985   -1.363520
H      2.973833   -0.357426    1.815923
H      2.748941    1.204637    1.000198
H      2.568579    2.078124   -0.993750
H      1.994968    1.774504   -2.672067
H      3.828088    0.388727   -2.895072
H      3.859695   -1.208091   -2.113689
H      1.228573   -0.489378    0.181654
H      2.576355   -1.552950   -0.225123
H     -0.244888    0.937577   -3.116750
H      0.165900   -0.429256   -1.959040
H     -4.712303   -1.864661    0.087873
H     -4.171651    1.583753   -1.211687
H     -6.778088   -1.797434   -3.045358
