45

C      4.599250    0.503826    1.567645
C     -3.033322    0.501843   -3.031332
C     -4.407071    0.418109    1.568869
C     -4.004496    0.920924   -2.116148
C     -4.672936    1.173695    0.287834
C     -1.834058   -0.044550   -2.619510
C      1.531656   -0.701519    1.400023
C      0.096875   -0.993812    1.866415
C      4.219812    1.638671   -1.814459
C     -2.975473    0.384347    1.979959
C      3.624413    0.374439   -1.885199
C      3.188713   -1.505496   -0.299877
C      4.286924    0.659295    0.125833
C     -3.704718    0.760913   -0.762486
C      1.776834   -1.543082    0.193808
C     -1.573030   -0.186959   -1.274171
C     -0.865776   -0.543940    0.842893
C     -0.533996   -0.667898   -0.509626
C     -2.518292    0.220592   -0.362722
C      0.759958   -1.244558   -0.834503
N      4.617204    1.780395   -0.558024
N      3.673057   -0.218011   -0.680727
N     -2.097489    0.008418    0.889681
O      0.995036   -1.489123   -2.050316
H      3.810246    1.035721    2.147896
H      4.626258   -0.576219    1.811927
H      5.571713    0.923073    1.832739
H     -3.283666    0.633860   -4.076034
H     -4.825467   -0.605506    1.549166
H     -4.975720    0.970173    2.371579
H     -4.943052    1.348254   -2.423331
H     -4.678790    2.254111    0.435696
H     -5.677550    0.855948   -0.066547
H     -1.084987   -0.367916   -3.318340
H      1.560901    0.385640    1.191159
H      2.193064   -0.948701    2.254779
H     -0.090554   -0.585936    2.858043
H      0.040724   -2.120575    1.892037
H      4.335977    2.361111   -2.620121
H     -2.873210   -0.316296    2.818583
H     -2.705876    1.425753    2.318540
H      3.199370   -0.041758   -2.778938
H      3.818817   -1.973276    0.507965
H      3.249120   -2.253383   -1.144996
H      1.583607   -2.610597    0.514339
