74

C     -4.039310    1.804148    1.555552
C     -4.883687    2.712218    1.109833
C      9.306040   -1.262169   -0.017996
C     -3.977935   -4.346906   -0.359348
C      8.611799   -0.944719    1.136706
C      8.747849   -1.032553   -1.250533
C     -3.372801    0.810659    0.715560
C     -5.279981    2.858034   -0.309650
C     -2.522588   -4.720870   -0.471931
C     -4.063648   -2.831802   -0.239151
C      7.353386   -0.395255    1.032607
C      7.481608   -0.479152   -1.323790
C     -1.862331    0.969932    0.788835
C     -4.876880    4.247073   -0.777519
C      3.701226    1.877642    0.561567
C      3.308059    0.664297   -1.412501
C      4.967781    1.339787    0.675181
C      4.586367    0.113383   -1.309128
C     -1.688976   -3.685992    0.251942
C     -2.930165   -2.266454   -1.096795
C      0.648382   -0.484785    1.421208
C      1.497572    2.157160   -0.578560
C      2.848687    1.559454   -0.470538
C      6.765602   -0.152144   -0.194046
C      5.429013    0.439983   -0.272411
C     -1.121271   -0.037554   -0.059727
C      0.036868   -1.820555    1.061992
C      0.367528    0.292294    0.134147
C     -5.506096    5.325287   -0.029530
C     -1.309253   -1.410048    0.490480
N     -1.642549   -2.419968   -0.491331
O      0.790392   -2.359371    0.038266
O     -5.251143    5.571550    1.170027
O     -6.444139    6.142447   -0.656387
O      0.568718    1.636834    0.294237
H     -3.818197    1.790741    2.637803
H     -5.308658    3.388938    1.881839
H     10.294547   -1.693695    0.048531
H     -4.452114   -4.753672    0.557320
H     -4.470184   -4.714547   -1.283349
H      9.065840   -1.132331    2.111708
H      9.323728   -1.294794   -2.128444
H     -3.720320    0.735194   -0.321721
H     -3.592304   -0.212686    1.154491
H     -4.882988    2.114547   -0.991138
H     -6.403624    2.818036   -0.389545
H     -2.394031   -5.670247    0.102036
H     -2.188814   -4.925209   -1.489247
H     -3.987326   -2.550459    0.814379
H     -5.016815   -2.508629   -0.714474
H      6.781240   -0.135010    1.932894
H      7.029618   -0.293681   -2.306521
H     -1.590184    2.004476    0.485748
H     -1.587989    0.863003    1.850998
H     -3.765188    4.292280   -0.666363
H     -5.105372    4.322764   -1.879960
H      3.325971    2.582316    1.293011
H      2.664401    0.393327   -2.239125
H      5.631094    1.597440    1.492550
H      4.947977   -0.598005   -2.059344
H     -0.694567   -4.123009    0.402142
H     -2.209789   -3.470665    1.199893
H     -2.917128   -2.934769   -2.009787
H     -3.158616   -1.274151   -1.481510
H      0.200493   -0.008169    2.293384
H      1.735254   -0.650557    1.552623
H      1.569902    3.262440   -0.359982
H      1.144078    2.126269   -1.646987
H     -1.378574    0.069306   -1.116120
H     -0.073469   -2.482685    1.940660
H      0.974319   -0.173309   -0.656836
H     -2.025571   -1.473667    1.344106
H      0.337592   -2.300799   -0.844021
H     -6.528354    7.141781   -0.419826
