51

C     -5.379030   -0.415532    0.100738
C     -2.569177   -1.859242    0.775585
C     -4.284955   -1.170186   -0.600107
C      5.288246   -1.998625   -0.296862
C      4.172220   -1.992468    0.506692
C      5.722520   -0.822428   -0.866085
C      3.466074   -0.840677    0.765265
C      5.010164    0.331250   -0.603448
C     -0.671100   -0.903990   -0.829869
C     -1.450244    0.730597    0.895867
C      3.200948    1.993023    1.906381
C      3.892115    0.345710    0.199757
C     -0.401408    0.389144   -0.133221
C      3.180534    1.608406    0.438526
C     -2.096793   -0.865565   -1.347566
C     -2.794701    0.491821    0.293747
C     -2.308866    0.474939   -1.999744
C     -2.808870    1.356610   -0.948667
C      1.814930    1.470158   -0.081092
N     -2.970541   -0.865436   -0.161475
O      2.513675    3.187982    2.050470
O      1.416711    2.239840   -0.980334
O      0.904454    0.525791    0.359252
O     -3.548127    1.057011   -2.041128
Br     0.000000    0.000000    0.000000
H     -5.459850   -0.807851    1.136781
H     -5.317412    0.665311    0.025856
H     -6.340686   -0.715323   -0.405084
H     -3.470590   -2.092710    1.415546
H     -1.761031   -1.629008    1.445300
H     -2.343713   -2.823417    0.250653
H     -4.517053   -2.264619   -0.420138
H     -4.434709   -1.074992   -1.712935
H      5.852401   -2.894688   -0.508709
H      3.868126   -2.948324    0.934061
H      6.598350   -0.766568   -1.509969
H      2.599678   -0.896764    1.402365
H      5.359001    1.266330   -1.058542
H     -0.582414   -1.797810   -0.208862
H      0.006544   -0.945937   -1.720929
H     -1.281012    0.297195    1.878877
H     -1.367484    1.849678    1.048671
H      4.262766    2.187656    2.166205
H      2.804173    1.190873    2.550842
H     -0.505340    1.193032   -0.924634
H      3.691826    2.417677   -0.106246
H     -2.332471   -1.689964   -2.020213
H     -3.553324    0.805677    1.038876
H     -1.593302    0.746099   -2.771966
H     -2.429666    2.385420   -0.838508
H      2.948410    3.874894    1.510021
