44

C      4.726662    0.751650   -1.705064
C      4.537927    0.045423   -0.627840
C     -4.613929   -1.847480   -0.637605
C     -5.664064   -0.956574   -0.600068
C     -3.340587   -1.328706   -0.546302
C     -5.442678    0.398293   -0.476037
C     -1.577649    1.857492   -0.216145
C      2.073992   -1.125284    1.832306
C     -2.671843    2.694628   -0.184712
C      1.314257    0.168537    1.902619
C      1.685371   -1.081158   -0.652399
C      2.518985    1.282272    0.224691
C      3.502255    0.184212    0.397824
C      2.719813   -1.136188    0.438968
C     -3.064658    0.033627   -0.419729
C     -1.764559    0.495944   -0.335822
C     -4.149740    0.903415   -0.385491
C      0.691491    0.050555   -0.430092
C     -0.681274   -0.483351   -0.376800
N     -3.927878    2.223144   -0.268089
N      1.169757    0.830249    0.647582
O     -0.775940   -1.300695    0.747660
H      5.539161    0.531771   -2.375292
H      4.075253    1.570830   -1.944400
H      5.266968   -0.781120   -0.463857
H     -4.718793   -2.913736   -0.733126
H     -6.662230   -1.389247   -0.674963
H     -2.493071   -2.032238   -0.576577
H     -6.280397    1.076199   -0.449478
H     -0.561306    2.220712   -0.152422
H      1.509828   -2.023748    2.056940
H      2.953129   -1.125445    2.537313
H     -2.521741    3.766069   -0.089994
H      1.914898    0.868336    2.556418
H      0.383461   -0.009322    2.445434
H      2.222401   -0.998395   -1.607401
H      1.148280   -2.073609   -0.698445
H      2.797096    2.213269    0.748720
H      2.425254    1.533084   -0.849559
H      3.976181    0.348576    1.415349
H      3.349457   -2.007420    0.279544
H      0.762963    0.695092   -1.355324
H     -0.849542   -1.135660   -1.285039
H     -1.502962   -0.994004    1.340983
