39

C     -3.562018    2.780602   -1.252111
C      4.118012    2.536180   -0.566126
C      4.522826   -0.010605   -0.348033
C     -2.509260    1.866244   -0.669012
C     -2.746094    0.589332   -0.476169
C      2.469917    1.054157    0.458998
C      2.008280   -0.269998    0.892874
C     -3.222683   -2.367831   -0.030875
C      3.649804    1.196253   -0.126567
C     -1.798109   -0.360320    0.077848
C     -2.000812   -1.636501    0.271780
C     -0.886797   -2.429119    0.872246
C     -0.458255    0.102853    0.491076
C      0.455925   -2.175019    0.308833
C      0.739250   -0.739618    0.266262
O     -4.264025   -1.690045   -0.564036
O     -0.827748   -2.101872    2.249285
O     -0.344171    1.212693    1.035029
O      0.721547   -1.518096   -0.855701
H     -3.501121    3.709184   -0.647286
H     -4.565537    2.348594   -1.064554
H     -3.366340    3.014420   -2.299376
H      3.472436    3.305248   -0.100442
H      5.151058    2.719073   -0.201473
H      4.016449    2.638161   -1.651648
H      5.476125    0.305743   -0.818929
H      4.801501   -0.483514    0.617426
H      3.934206   -0.706551   -0.984813
H     -1.577689    2.290796   -0.432087
H     -3.726933    0.251630   -0.759414
H      1.843285    1.911316    0.619669
H      2.802423   -1.028299    0.730496
H      1.835489   -0.229427    2.003503
H     -2.939497   -3.248764   -0.708022
H     -3.605313   -2.914065    0.893279
H     -1.105905   -3.498404    0.828773
H      1.244412   -2.840332    0.702442
H     -4.794191   -2.206655   -1.227340
H     -1.460444   -1.377444    2.464192
