61

C     -4.070683    1.816813   -2.393992
C     -1.599045   -3.691867    1.235514
C      3.506104   -1.062111   -0.900744
C      7.850692    0.580209   -0.967178
C      7.900379    1.175316    1.293678
C      6.456772    0.492067   -0.945706
C      6.545932    1.094207    1.334171
C     -1.272774   -0.804517   -1.708201
C      2.377661   -1.391207   -1.875465
C      0.007167   -1.438222   -2.220810
C      3.438407    0.364549   -0.479118
C     -5.008379    1.100946    2.293740
C     -5.738690    2.194949   -0.082268
C      0.899329   -1.926294   -0.057960
C      8.593330    0.916405    0.126287
C      5.770565    0.747043    0.209416
C     -4.216450    0.919770    1.203814
C     -6.167288    1.822458    2.224706
C     -6.548736    2.383582    1.021228
C     -1.120921   -0.583750   -0.193541
C     -4.577456    1.470043   -0.006034
C     -0.529845   -1.798430    0.450419
C     -2.963056    0.126115    1.313093
Cl    -7.154354    2.024971    3.664847
F      9.942738    1.000752    0.103425
N     -7.756006    3.128992    0.969904
N     -2.263720   -0.026429    0.320758
N      1.088454   -1.180623   -1.286255
O     -2.637106   -0.409702    2.545496
O     -3.790248    1.300530   -1.129039
O     -1.175128   -2.981737    0.122764
O      4.435805    0.702227    0.400370
H     -4.840241    1.228073   -2.909794
H     -4.349363    2.887779   -2.352495
H     -3.109314    1.771964   -2.980690
H     -0.752604   -3.974046    1.899254
H     -2.417893   -3.177356    1.785238
H     -2.035356   -4.643006    0.871016
H      3.443108   -1.766048   -0.019222
H      4.426529   -1.329019   -1.414374
H      8.347776    0.370071   -1.899690
H      8.494675    1.445013    2.167395
H      5.936555    0.247762   -1.840500
H      6.028410    1.304598    2.269261
H     -1.352732    0.194078   -2.171205
H     -2.180751   -1.372507   -1.959621
H      2.553265   -2.419454   -2.225270
H      2.488276   -0.703170   -2.734132
H     -0.148522   -2.532028   -2.229631
H      0.245935   -1.112999   -3.234058
H      2.423761    0.588592   -0.048247
H      3.457177    1.006993   -1.422087
H     -4.730574    0.671358    3.248138
H     -6.095743    2.665002   -1.009290
H      1.557652   -1.490405    0.714242
H      1.191274   -2.971716   -0.260370
H     -0.288253    0.195490   -0.146905
H     -0.478923   -1.644723    1.536671
H     -8.527596    2.881479    1.611447
H     -7.817854    3.906357    0.278930
H     -1.692123   -0.295185    2.948308
