70

C      9.437240   -0.869083   -0.225386
C      7.995956   -0.078302    1.613237
C      3.345138    1.100231   -0.056028
C      4.063782    2.192954   -0.750270
C      2.119194    1.206581    0.434923
C      4.387199    1.739975   -2.156340
C     -8.222306    1.727294    0.259080
C     -9.010049    0.594758    0.343366
C     -6.940628    1.673912   -0.227381
C      1.524156    0.053117    1.099370
C      5.221166    0.465300   -2.066089
C     -2.122980   -0.607357   -1.201401
C     -1.964092    0.424739   -0.402922
C     -7.157482   -0.664049   -0.574727
C     -0.914271   -0.685262    2.519879
C     -4.607733   -0.852548   -1.564401
C      8.299698    0.017235    0.105336
C     -8.460852   -0.604871   -0.081257
C     -3.227489   -0.915262   -2.107905
C     -6.395516    0.480954   -0.648494
C      0.237348   -0.463075    0.442789
C     -0.779818    0.617266    0.475888
C     -0.257534   -1.509860    1.464839
C     -1.216239    0.674504    1.947868
C      6.455412    0.698104   -1.312920
C     -9.216915   -1.877029   -0.039464
F     -8.643367   -2.716439    0.880563
F     -9.162632   -2.436351   -1.310313
F    -10.526298   -1.616954    0.243001
O     -3.041758   -2.289937   -2.474652
O      0.859317   -2.223026    1.966363
O     -0.638770    1.721285    2.630726
O      6.955323    1.857094   -1.276474
O     -5.082338    0.388975   -1.154728
O      7.122242   -0.285768   -0.617009
H     10.404656   -0.397928    0.120788
H      9.373065   -1.844273    0.319780
H      9.510720   -1.117175   -1.301304
H      6.948793    0.277327    1.767921
H      8.655447    0.568339    2.202907
H      8.078061   -1.107733    1.987749
H      3.870013    0.144840    0.070563
H      3.447723    3.125802   -0.744779
H      5.026966    2.382221   -0.228443
H      1.589489    2.153201    0.338979
H      3.421893    1.481963   -2.639210
H      4.948480    2.526584   -2.711402
H     -8.663428    2.659347    0.592628
H    -10.010327    0.587363    0.712980
H     -6.354515    2.584220   -0.282456
H      1.278387    0.250201    2.183810
H      2.274979   -0.769049    1.155584
H      5.459808    0.139144   -3.120245
H      4.667953   -0.387131   -1.639745
H     -1.278163   -1.333974   -1.154441
H     -2.756410    1.163052   -0.404123
H     -6.744493   -1.598648   -0.892623
H     -1.830682   -1.170514    2.928461
H     -0.180638   -0.528245    3.339937
H     -4.638881   -1.534149   -0.661780
H     -5.348383   -1.345776   -2.262594
H      8.566129    1.078208   -0.090953
H     -3.154053   -0.381559   -3.093898
H      0.459789   -0.908414   -0.530338
H     -0.339132    1.616332    0.267253
H     -0.905231   -2.263999    1.007307
H     -2.319767    0.847917    1.936691
H     -3.144679   -2.751869   -1.576527
H      0.528407   -3.094672    2.330463
H     -1.276079    2.009941    3.337001
