70

C      8.873661    1.627516    1.945850
C      9.608539   -0.406972    0.703765
C      2.723125   -1.160121   -0.853220
C      4.020896   -1.865079   -0.509101
C      1.714754   -1.858802   -1.310979
C      5.059551   -1.197005   -1.383972
C     -8.309889    1.395007   -0.080895
C     -9.137441    0.476797    0.563312
C     -6.959639    1.382167    0.144673
C      0.388860   -1.566737   -1.736021
C      5.371133    0.196097   -0.916913
C     -2.371268    0.281304    0.871399
C     -1.189975    0.063923    0.412397
C     -7.221758   -0.409523    1.618137
C     -1.013483    1.545313   -3.032355
C     -4.378863   -0.496245    2.034730
C      8.425373    0.293841    1.343703
C     -8.569679   -0.447256    1.437860
C     -2.888718   -0.300778    2.113585
C     -6.367042    0.447519    1.022074
C     -0.315387   -0.343601   -1.865242
C     -0.609920    0.617799   -0.817585
C      0.115114    0.556910   -3.045144
C     -1.553838    1.535342   -1.585583
C      6.156104   -0.000421    0.388963
C     -9.451231   -1.465691    2.115014
F    -10.699485   -1.476145    1.495305
F     -8.876180   -2.707367    2.126752
F     -9.683799   -1.090299    3.424477
O     -2.150925   -1.293782    2.658445
O      1.277196    1.236415   -2.826025
O     -1.456194    2.855300   -1.148570
O      5.695360   -0.503490    1.415279
O     -4.985826    0.480381    1.207328
O      7.454452    0.404112    0.367003
H      9.982792    1.506044    2.042169
H      8.461035    1.705210    2.947586
H      8.702094    2.467060    1.261197
H      9.231835   -1.070096   -0.104183
H     10.143597    0.424284    0.140673
H     10.285247   -0.868283    1.431415
H      2.651098   -0.154135   -0.723958
H      3.922078   -2.962419   -0.764818
H      4.202166   -1.810936    0.555494
H      1.955161   -2.963721   -1.409127
H      6.000420   -1.819293   -1.435385
H      4.701933   -1.161701   -2.442793
H     -8.822588    2.091379   -0.749898
H    -10.204683    0.417579    0.427859
H     -6.332742    2.097739   -0.379318
H     -0.257909   -2.214953   -1.011065
H      0.219438   -2.164840   -2.708476
H      4.425996    0.706422   -0.665494
H      5.978505    0.716568   -1.652570
H     -3.084500    0.963759    0.341619
H     -0.511232   -0.595365    0.990483
H     -6.789400   -1.125725    2.317749
H     -1.819265    1.149681   -3.697636
H     -0.697372    2.567264   -3.338391
H     -4.737896   -1.530839    1.873510
H     -4.753161   -0.186853    3.095650
H      8.053939   -0.305105    2.195507
H     -2.762515    0.564873    2.943505
H     -1.354003   -0.643452   -2.273032
H      0.227633    1.296690   -0.518905
H      0.118546   -0.048516   -3.965314
H     -2.595739    1.193434   -1.585305
H     -2.538646   -2.196926    2.387486
H      1.313826    1.986849   -3.472558
H     -2.009266    3.059856   -0.352125
