46

C      4.171644    0.427169    1.707871
C      4.367863    0.031310    0.301967
C     -4.525928   -1.274105    2.071711
C     -5.640049   -1.025156    1.275298
C     -3.286421   -0.736692    1.728480
C     -5.504987   -0.260720    0.172937
C     -1.865063    1.288766   -0.876203
C      1.600801   -1.426689   -1.761493
C     -3.005219    1.518697   -1.652953
C      0.815409   -0.166505   -1.898011
C      1.190001   -1.169961    0.582269
C      2.368823    1.136379   -0.772675
C      3.185731   -0.086027   -0.579602
C      2.344844   -1.315399   -0.409635
C     -3.127356    0.039942    0.614916
C     -1.887696    0.541028    0.280267
C     -4.252333    0.267318   -0.152132
C      0.620267    0.231615    0.469087
C     -0.682644    0.434355    1.136464
N     -4.159561    1.002264   -1.266749
N      0.933602    0.769968   -0.779591
O     -0.604785    1.894647    1.478186
H      3.520324   -0.263797    2.273483
H      3.907326    1.498012    1.850985
H      5.171350    0.339821    2.217356
H      4.857824   -0.987534    0.306182
H      5.135899    0.696096   -0.171806
H     -4.582171   -1.883369    2.974110
H     -6.583065   -1.466341    1.586813
H     -2.429610   -0.925671    2.338566
H     -6.337168   -0.036594   -0.483574
H     -0.988531    1.790354   -1.248502
H      0.964400   -2.341672   -1.762155
H      2.391379   -1.488216   -2.524833
H     -2.941720    2.106585   -2.544661
H      1.173621    0.432474   -2.791627
H     -0.195199   -0.458514   -2.154773
H      1.501661   -1.411220    1.615696
H      0.467123   -1.957546    0.300579
H      2.557492    1.661660   -1.757269
H      2.454441    1.914054   -0.003784
H      3.666047   -0.263374   -1.615435
H      2.929173   -2.205658   -0.188595
H      1.355921    0.789930    1.207114
H     -0.753735    0.011857    2.099516
H     -0.299724    2.326463    0.657924
