39

C     -3.697659    1.673422    2.905935
C     -3.745199    0.633517    2.088892
C     -1.731329    1.466697    0.928366
C      3.264432    0.698346   -1.975953
C     -2.780608    0.417951    1.021560
C      3.585832    0.497023   -0.627377
C      2.618840   -0.151456    0.308994
C     -0.227439   -0.723372   -1.976096
C     -2.892002   -0.646665    0.255972
C      1.295763   -0.596323   -0.091385
C     -1.100885   -1.771841   -1.467184
C     -1.412131    0.190876   -1.647574
C     -3.925963   -1.673395    0.375627
C      5.613006    1.478817   -1.054439
N      6.791532    1.945641   -0.887941
N      4.759372    0.902652   -0.229287
N      0.921426   -0.439307   -1.255982
N      2.957819   -0.336301    1.561710
N     -1.917947   -0.829971   -0.793257
O      0.472146   -1.203138    0.883402
O     -1.120855   -3.021632   -1.583526
O     -4.831727   -1.660127    1.210599
O     -3.892717   -2.763577   -0.524185
O      2.122759   -0.917642    2.452315
S     -0.840086    1.550376   -0.620510
S      4.704202    1.477550   -2.604019
H     -4.434648    1.790577    3.680948
H     -2.943999    2.428385    2.847950
H     -4.537954   -0.046786    2.256119
H     -1.048695    1.448137    1.801970
H     -2.289338    2.454830    1.004699
H      2.381021    0.457242   -2.535043
H     -0.078280   -0.774125   -3.111204
H     -2.019608    0.459060   -2.529294
H      7.209953    1.891039    0.047007
H      5.105770    0.790906    0.807757
H      0.009415   -2.100333    0.665179
H     -4.685074   -3.414343   -0.542885
H      2.340857   -1.582709    3.156110
