38

C     -2.886893   -2.213774   -0.010504
C     -2.583785   -1.875734    1.287654
C      2.594083   -1.102528    0.412477
C      1.957126   -0.902126    1.745172
C     -2.227823   -1.695665   -1.092503
C     -1.545956   -0.957650    1.426601
C      1.832539   -0.622890   -0.759060
C      1.041556    0.265930    1.851664
C     -0.441689    1.906368    0.820161
C     -0.316487    2.794001   -0.389889
C     -0.538202   -0.263491   -2.142051
C     -1.207066   -0.790074   -0.909261
C     -0.863964   -0.418718    0.364332
C      1.121297    0.686642   -0.597237
C      0.247317    0.953721   -1.775679
C      0.243103    0.568402    0.633349
N     -0.707699    2.031272   -1.536740
H     -3.689609   -2.927908   -0.188511
H     -3.108462   -2.288052    2.149611
H      3.613340   -0.624757    0.389084
H      2.791776   -2.188959    0.286754
H      2.771144   -0.784004    2.493705
H      1.407168   -1.816670    2.054753
H     -2.512918   -2.001834   -2.103356
H     -1.324357   -0.698798    2.477019
H      2.551683   -0.485339   -1.620890
H      1.157282   -1.450852   -1.108348
H      0.380160    0.218550    2.720091
H      1.670895    1.189226    2.048831
H      0.023183    2.457207    1.688304
H     -1.511941    1.794757    1.083905
H      0.697388    3.238006   -0.495285
H     -1.079597    3.612023   -0.260519
H     -0.010636   -1.021775   -2.716277
H     -1.391619    0.079728   -2.798306
H      1.863258    1.466611   -0.436022
H      0.899775    1.293471   -2.614146
H     -0.915370    2.575683   -2.378881
