35

C     -4.249255   -1.404445    0.095563
C     -4.626584   -0.147331    0.557012
C      4.324068   -0.950265   -0.904680
C      3.362169   -1.559684   -1.670184
C      3.913358    0.079594   -0.065163
C     -2.935134   -1.688370   -0.219318
C     -3.673632    0.824478    0.700367
C      2.056487   -1.145663   -1.587083
C      2.255251    1.588117    0.930881
C      0.848179    1.236416    1.436195
C     -0.582619   -0.960993   -0.392721
C     -1.357079    1.617243    0.553317
C      2.615608    0.489242    0.015780
C     -1.994271   -0.680901   -0.062631
C     -2.335770    0.552284    0.385112
C      1.651502   -0.110434   -0.741472
C      0.211382    0.290229   -0.702195
N     -0.005535    1.301535    0.281940
H     -4.962968   -2.207236   -0.035468
H     -5.665577    0.001639    0.782146
H      5.374715   -1.259895   -0.950325
H      3.652540   -2.357437   -2.326660
H      4.717198    0.535069    0.525916
H     -2.598448   -2.644574   -0.578824
H     -3.970406    1.804581    1.060584
H      1.286435   -1.636041   -2.202182
H      2.958188    1.704387    1.771179
H      2.135597    2.506836    0.323733
H      0.900314    0.178837    1.757565
H      0.491369    1.932681    2.190060
H     -0.507670   -1.687530   -1.219208
H     -0.089205   -1.414472    0.512950
H     -1.651707    2.480287   -0.112879
H     -1.449306    2.016619    1.585575
H     -0.099194    0.715197   -1.694884
