59

C     -1.166366    0.537780   -2.142479
C     -5.431704    1.829783    2.256129
C      7.169502   -0.485201    0.374117
C      6.645007   -1.628874   -0.142831
C     -2.076136   -2.562096   -0.089465
C      1.008474   -1.048187   -1.252836
C      0.077977   -0.379343   -0.294763
C     -2.876962   -2.054498    0.831148
C     -4.251276    1.457723   -1.017332
C     -4.623035   -0.731025   -0.126038
C     -3.816269   -0.027421    1.933358
C     -5.077085    0.709854    0.041072
C      6.440101    0.702729    0.394390
C      5.370841   -1.633626   -0.660767
C     -2.955951    1.571734   -0.291936
C     -1.700971   -1.690683   -1.195530
C      2.348410   -1.102924   -0.603350
C      4.631614   -0.503484   -0.659854
C      5.168163    0.673290   -0.129210
C     -2.303057    0.269137    0.090300
C      7.073042    1.868525    0.961188
C     -1.345270   -0.279090   -0.890379
C     -4.460442    1.213196    1.313522
C     -3.310099   -0.674574    0.652282
N      3.322508   -0.510622   -1.192602
O      4.862456   -2.824488   -1.183741
O     -1.683321   -2.146960   -2.390686
O      2.588345   -1.747781    0.579342
O      4.376415    1.783202   -0.154976
O      8.254309    1.788566    1.418917
O      6.447488    3.082410    1.030460
O     -3.436300    2.112758    0.934212
H     -1.992761    1.176909   -2.423151
H     -1.035942   -0.205938   -2.981298
H     -0.215116    1.113000   -2.129179
H     -5.516330    2.913316    2.078945
H     -5.140967    1.595233    3.313741
H     -6.424040    1.354576    2.113479
H      8.171683   -0.459028    0.787460
H      7.231652   -2.543775   -0.148354
H     -1.698341   -3.599989   -0.055570
H      0.644846   -2.089429   -1.402771
H      1.030345   -0.494883   -2.191721
H      0.396800    0.637180   -0.006880
H     -0.039880   -0.956467    0.648014
H     -3.163018   -2.692673    1.662098
H     -4.642768    2.479376   -1.164498
H     -4.277366    0.848519   -1.912368
H     -5.303644   -1.363146    0.444928
H     -4.472569   -1.009730   -1.169546
H     -4.549851   -0.630835    2.463752
H     -2.919716    0.234926    2.526580
H     -6.136968    0.859889   -0.061873
H     -2.246655    2.290820   -0.700523
H     -1.677619    0.563748    0.998792
H      3.939645   -2.827974   -1.558871
H      3.263430   -1.373845    1.241339
H      4.529353    2.675733    0.144496
H      6.975384    3.934679    1.136943
