43

C     -2.922690    2.690312    0.666747
C     -2.100920    1.524868    1.144227
C      5.107803   -0.512049   -0.939159
C      4.868513    0.719885   -1.521028
C     -2.748665   -1.015327   -1.364950
C      4.087329   -1.215510   -0.324838
C      3.595912    1.254726   -1.488766
C      1.161008   -2.333840    0.957517
C     -2.738736    0.394320   -0.893163
C     -0.843508    1.913901   -0.838045
C     -2.387691   -1.891722   -0.154096
C     -0.320364   -2.491296    0.964896
C      0.435569    1.935693   -1.117608
C      2.825718   -0.686796   -0.292057
C      1.653554   -1.141816    0.230568
C      2.590217    0.536576   -0.870420
C      0.737606   -0.132521   -0.069274
C     -0.675473   -0.270356    0.383601
C     -1.523405    0.817326   -0.112204
N     -1.015900   -1.621335    0.078440
N      1.273038    0.863324   -0.719671
H     -3.781582    2.866556    1.355283
H     -2.321454    3.626108    0.665995
H     -3.330878    2.565040   -0.347364
H     -1.277152    1.896654    1.781026
H     -2.777144    0.828077    1.684699
H      6.092196   -0.926598   -0.963684
H      5.684206    1.268366   -2.004888
H     -1.942136   -1.205217   -2.109426
H     -3.745230   -1.253169   -1.742118
H      4.264968   -2.194836    0.140769
H      3.365595    2.229261   -1.939072
H      1.685775   -3.219048    0.533283
H      1.501322   -2.227525    2.029278
H     -3.680573    0.555506   -0.329318
H     -2.825677    1.051314   -1.805196
H     -1.466692    2.753036   -1.153819
H     -2.537674   -2.946696   -0.358666
H     -3.018860   -1.500283    0.680934
H     -0.734961   -2.473013    2.006862
H     -0.537677   -3.547121    0.622828
H      0.904875    2.761790   -1.657586
H     -0.580162   -0.246564    1.520122
