45

C     -4.611909    1.458646   -1.048263
C      4.691435    2.291668   -0.241843
C      3.515991    2.079856   -0.916780
C      5.154503    1.287258    0.583388
C      2.827865    0.888410   -0.763052
C      4.456482    0.105021    0.725787
C     -1.315110    1.066844    0.520224
C     -1.956112   -1.067915   -0.640210
C      2.615525   -2.138453   -1.084037
C      3.273798   -0.125508    0.055647
C     -1.044787   -0.390451    0.348090
C      2.590276   -1.396438    0.253338
C     -2.816413    1.299798    0.550173
C     -3.350574   -0.540801   -0.623224
C     -3.507393    0.399495    1.526347
C     -3.965239   -0.811682    0.728281
C      1.214081   -1.277809    0.755024
N     -3.335055    0.904578   -0.732898
O      1.985130   -3.358613   -0.982673
O      0.780460   -1.756932    1.830617
O      0.306062   -0.574329   -0.024591
O     -4.837139    0.133519    1.267214
Cl     0.688456    0.000000    0.000000
H     -5.383381    0.699099   -1.286282
H     -4.946547    2.138268   -0.244418
H     -4.525321    2.088514   -1.974083
H      5.277251    3.203144   -0.319835
H      3.138863    2.868240   -1.573646
H      6.072572    1.441840    1.116111
H      1.922121    0.761133   -1.301628
H      4.887363   -0.634783    1.393526
H     -0.938000    1.407212    1.516410
H     -0.910068    1.688791   -0.308476
H     -1.579583   -1.016950   -1.677053
H     -1.988774   -2.148569   -0.376175
H      2.051960   -1.549422   -1.858360
H      3.656164   -2.214077   -1.412683
H     -1.189954   -0.897134    1.323492
H      3.149381   -2.038166    0.955158
H     -3.058014    2.348156    0.812030
H     -3.919304   -0.987933   -1.442809
H     -3.061556    0.165734    2.506134
H     -3.882154   -1.806751    1.177370
H      2.555102   -3.992508   -0.492160
H     -0.688456    0.000000    0.000000
