28

C     -1.278886   -0.261895   -2.024671
C      1.096146   -0.779946   -1.938735
C      0.428354    2.533835    1.094479
C      0.898441   -1.244810    0.946320
C      1.219312    0.162722    1.323610
C     -1.489255   -0.791203    0.862765
C     -0.305467   -1.269637    0.007877
C     -1.145039    0.607821    1.229369
C     -0.066824   -0.279214   -1.105494
C      0.167852    1.107992    0.744821
O     -1.862144    1.327831    1.880723
O      0.239511    0.971382   -0.639680
H     -1.890932    0.642839   -1.826492
H     -1.873651   -1.165779   -1.853258
H     -0.988277   -0.210387   -3.090324
H      0.779594   -1.664542   -2.530081
H      1.987455   -0.991040   -1.337300
H      1.353374    0.037693   -2.643636
H     -0.080923    2.773470    2.052319
H      1.518180    2.682483    1.171529
H     -0.005496    3.181413    0.279479
H      0.570522   -1.818776    1.859763
H      1.753556   -1.803622    0.519001
H      2.196493    0.499197    0.907884
H      1.212782    0.278506    2.438508
H     -2.412723   -0.865868    0.269515
H     -1.496285   -1.400500    1.782601
H     -0.525671   -2.259967   -0.380892
