78

C      6.908297   -2.865029    1.783099
C      7.580344   -0.481371    1.513520
C      3.578027   -1.025326   -2.256623
C      0.809230    1.235643   -2.599965
C     -2.211723    0.008650    2.631273
C     -7.416375   -1.247211    0.561948
C     -4.788103    3.364098    0.252243
C      6.154064   -0.467137   -1.029759
C      1.210375   -0.688509   -0.000577
C     -1.873033    2.128695   -1.872048
C      6.485577   -1.745845   -0.344956
C      4.875055    0.099754   -0.571866
C      2.556068   -0.154108   -0.070705
C      0.334923   -0.828448   -1.156759
C     -1.093199    1.161164   -1.042261
C     -5.956889    0.911594   -0.522483
C     -2.839659    2.985511   -1.138593
C     -4.838021    1.525260   -1.342230
C     -4.289759   -1.398687    2.639042
C      6.572555   -1.541400    1.152113
C      3.646149   -0.802409   -0.809430
C     -0.122023    0.335851   -1.924578
C     -3.560076   -0.351805    2.126497
C     -6.071739   -0.962529    1.132178
C     -5.361135    0.112278    0.581996
C     -5.548726   -1.720911    2.155571
C     -4.116739    0.394910    1.093026
C     -3.928282    2.281912   -0.401884
O     -6.282697   -2.777499    2.674354
O     -3.377614    1.447278    0.580733
H      6.447493   -3.718364    1.258202
H      8.010821   -3.007543    1.718557
H      6.542976   -2.909717    2.840938
H      7.940525   -0.730641    2.551097
H      8.456851   -0.487796    0.843059
H      7.133727    0.538926    1.575130
H      2.774290   -1.598505   -2.687852
H      3.773007   -0.079749   -2.855865
H      4.512313   -1.637085   -2.523751
H      0.202024    1.784507   -3.406915
H      1.593808    0.747523   -3.211057
H      1.230883    2.080225   -2.020807
H     -1.437075   -0.535922    2.039474
H     -2.116023   -0.323384    3.689910
H     -2.004050    1.090604    2.505640
H     -7.912724   -2.012073    1.188005
H     -7.281444   -1.574590   -0.483292
H     -7.967109   -0.278970    0.543077
H     -5.507260    3.788854   -0.475631
H     -5.306660    2.926805    1.125664
H     -4.169583    4.205580    0.627184
H      6.186182   -0.547227   -2.137916
H      6.959524    0.274897   -0.737203
H      1.237630   -1.735286    0.497117
H      0.581830   -0.153427    0.812685
H     -1.137873    2.840029   -2.356605
H     -2.342708    1.606242   -2.742178
H      5.707316   -2.493728   -0.542420
H      7.488953   -2.085003   -0.712770
H      4.639585    1.030786   -1.150774
H      4.860458    0.386481    0.484333
H      2.510353    0.918510   -0.447025
H      2.937474   -0.092574    1.018795
H     -0.638309   -1.314957   -0.735960
H      0.681528   -1.678322   -1.819552
H     -1.774685    0.367543   -0.630105
H     -0.514702    1.627959   -0.246918
H     -6.584299    0.235436   -1.121297
H     -6.635946    1.700103   -0.112497
H     -3.241807    3.817014   -1.790922
H     -2.238666    3.558248   -0.366378
H     -5.206034    2.237493   -2.086144
H     -4.317578    0.680179   -1.842358
H     -3.861469   -1.991584    3.451608
H      5.584863   -1.202681    1.537615
H      3.896528   -1.785207   -0.297434
H     -0.830622   -0.064521   -2.722363
H     -5.899186   -3.339461    3.430382
