38

C      4.706942    0.855973    1.490616
C     -0.178840    3.324893   -1.940596
C     -2.842467   -3.252258    2.719245
C      3.626979   -0.605883   -0.186050
C      2.234618    0.833214    1.125704
C     -3.436703   -0.189422   -0.272426
C     -2.516446    1.512033   -1.814287
C      3.471112    0.351510    0.792930
C     -3.674731    0.834937   -1.276771
C     -2.233652   -0.504209    0.144730
C      2.486812   -1.075220   -0.833845
C      1.083668    0.381490    0.494836
C     -1.307197    1.209355   -1.408146
C      1.228912   -0.584110   -0.494211
C     -0.110206   -0.851241   -0.958681
C     -2.001725   -1.543124    1.162434
C     -1.050487    0.172330   -0.389873
O     -4.852575    1.122219   -1.665148
O      2.611165   -2.038295   -1.823102
O     -0.458968   -1.777764   -1.712880
O     -0.852398   -1.849050    1.565958
O     -0.190675    1.904933   -1.967386
O     -3.061405   -2.242173    1.730419
O     -0.243130    0.713152    0.658440
H      4.813018    0.389083    2.498750
H      4.619746    1.951091    1.666134
H      5.604950    0.590462    0.898881
H     -1.089915    3.636980   -2.521866
H      0.676849    3.733350   -2.472759
H     -0.226431    3.744215   -0.934754
H     -2.290477   -2.848790    3.589517
H     -2.381523   -4.136371    2.275220
H     -3.846681   -3.552746    3.088238
H      4.612204   -0.994220   -0.455920
H      2.181942    1.591989    1.911351
H     -4.268269   -0.736305    0.171703
H     -2.625519    2.295167   -2.575119
H      1.781503   -2.367194   -2.281288
