16

C      1.716681   -0.033256    0.199038
C     -1.164970   -0.533718    0.841193
C      0.701562   -0.477574   -0.817511
C     -0.695018   -0.008704   -0.492033
N     -0.829108    1.417456   -0.515626
H      2.726952   -0.147570   -0.253543
H      1.611344    1.035417    0.473374
H      1.710406   -0.678901    1.100343
H     -0.740732    0.086378    1.659761
H     -0.898377   -1.619344    0.968662
H     -2.285488   -0.491886    0.868778
H      0.712690   -1.570238   -0.886712
H      0.986783   -0.038635   -1.794830
H     -1.368281   -0.430759   -1.268329
H     -0.342538    1.850791    0.313584
H     -1.841906    1.640544   -0.396149
