42

C     -3.115678   -1.448123   -0.341188
C      1.826884    2.005926   -0.476153
C      0.126762    2.139524    1.240076
C      2.818764   -0.769067   -0.850281
C     -2.669683    1.019121   -0.297861
C     -1.428703    1.615728   -0.891505
C      0.963660   -2.188261   -0.184663
C     -0.385978   -1.739041   -0.600310
C     -0.107612   -0.506252    1.470101
C     -2.301888   -0.342394    0.248467
C     -0.299971    0.676686   -0.648421
C      1.255493    0.023086    0.978200
C      0.795959    1.201535    0.215344
C      1.892019   -1.094465    0.284360
C     -0.837015   -0.496597    0.119196
O      2.724926   -1.730625    1.250192
H     -4.193179   -1.153070   -0.240478
H     -2.992445   -2.341418    0.307005
H     -2.833096   -1.611006   -1.381890
H      2.071631    1.709448   -1.501031
H      1.432544    3.064037   -0.569536
H      2.709070    2.109568    0.194042
H      0.584759    1.975308    2.242120
H      0.248944    3.202746    0.928102
H     -0.938707    1.953036    1.337923
H      2.289670   -0.653548   -1.830755
H      3.446380   -1.700344   -1.005261
H      3.541882    0.023379   -0.640500
H     -3.474622    0.833064   -1.063347
H     -3.154908    1.669182    0.464614
H     -1.631222    1.728454   -1.998180
H     -1.234123    2.661698   -0.549155
H      1.424740   -2.736894   -1.050323
H      0.829610   -2.985680    0.600049
H     -0.410083   -1.518325   -1.694955
H     -1.118722   -2.578356   -0.464391
H      0.007545   -1.525112    1.857463
H     -0.564992    0.147613    2.204231
H     -2.547495   -0.313171    1.350745
H      0.138920    0.386912   -1.628312
H      1.803019    0.350029    1.907504
H      3.306946   -1.064328    1.694270
