36

C      3.913392    0.501804   -0.967658
C      3.589221    0.632896    0.483161
C      2.943253   -0.474826   -1.594483
C     -4.522310   -0.248099   -1.799305
C      2.788990   -0.525221    1.019704
C      1.556181   -0.210592   -0.982889
C     -3.157265   -0.165021   -1.688575
C      0.420844   -0.547883    1.160935
C     -1.488558    0.578774   -0.061577
C     -0.958996   -0.641002    0.660178
C     -3.973950    0.608303    0.154100
N     -4.997453    0.237354   -0.644924
N      1.521250   -0.638311    0.338932
N     -2.848875    0.356281   -0.498112
N     -4.145726    1.170718    1.472423
O     -1.274459   -1.829792    0.007838
O     -3.067053    1.526795    2.237361
O     -5.308784    1.331202    1.913992
H      3.743204    1.479510   -1.477790
H      4.937217    0.122222   -1.168903
H      4.540023    0.698600    1.047805
H      3.028240    1.568390    0.682096
H      3.193821   -1.519043   -1.392206
H      2.838023   -0.284826   -2.679677
H     -5.082364   -0.633923   -2.660452
H      2.663225   -0.367761    2.111588
H      3.369605   -1.476853    0.903919
H      1.467629    0.914885   -1.023199
H      0.847840   -0.614464   -1.690655
H     -2.457452   -0.489051   -2.483028
H      0.480243    0.420815    1.746576
H      0.521843   -1.321140    1.985134
H     -0.914025    0.824661   -0.982595
H     -1.440300    1.480972    0.615897
H     -1.604494   -0.704686    1.599345
H     -1.121979   -1.761689   -0.952604
