49

C     -0.712022   -2.502334    0.966196
C     -0.053601   -2.209536   -1.274812
C      2.629077   -1.678401    0.299426
C      3.886004   -1.854755   -0.226763
C     -2.522715   -0.739381   -1.640499
C     -2.216995   -1.852035   -0.594764
C     -3.837629    1.131221   -0.736432
C     -1.833419    1.555139    1.143184
C     -4.424840    4.036104    1.376299
C      6.215769    0.765400   -1.175465
C     -2.689090    0.405365   -0.696871
C      1.998245   -0.462792    0.484167
C     -1.653298    0.566687    0.208254
C      4.611863   -0.773327   -0.612798
C     -4.002422    2.139201    0.226339
C     -3.000037    2.334881    1.150145
C      2.790122    0.617974    0.076663
C     -0.478055   -0.261565    0.063683
C      0.678621    0.021148    0.943641
C      4.053410    0.478078   -0.457272
C      2.081518    1.825640    0.463766
N     -0.818717   -1.623781   -0.162846
O      2.402939    3.031052    0.296120
O      5.853919   -0.605022   -1.159022
O     -4.986497    3.058453    0.510361
O     -3.334654    3.368943    2.022599
O      4.986043    1.407620   -0.921407
O      0.940927    1.398811    1.076116
Br     0.000000    0.000000    0.000000
H      0.050076   -2.258980    1.708207
H     -0.446683   -3.502480    0.558801
H     -1.714280   -2.706719    1.464240
H      0.443256   -3.109729   -0.913547
H     -0.790481   -2.505836   -2.088819
H      0.683188   -1.497208   -1.698452
H      2.105902   -2.568566    0.609117
H      4.289889   -2.870041   -0.329280
H     -3.483090   -1.052498   -2.095876
H     -1.698003   -0.618193   -2.335051
H     -2.930012   -1.767571    0.219820
H     -2.238255   -2.814406   -1.102045
H     -4.615411    0.970212   -1.462423
H     -1.067690    1.693851    1.865281
H     -4.070180    4.920615    0.844999
H     -5.148968    4.281112    2.182972
H      6.677910    1.072554   -2.135467
H      6.919772    1.011019   -0.352127
H     -0.065589    0.081251   -0.960212
H      0.534184   -0.337176    1.981313
