36

C     -3.881239    0.897854    0.764063
C     -4.083695   -0.251318   -0.212989
C     -2.942360    1.861520    0.072600
C      4.937213    1.045184   -0.869122
C     -2.788392   -0.977771   -0.319161
C     -1.747200    1.174173   -0.503367
C      3.731474    0.622596   -1.386314
C     -0.486701   -0.871099   -0.449974
C      1.957180   -0.988877   -0.793268
C      0.822511   -0.185260   -0.202894
C      4.096614   -0.514765    0.438634
N      5.127169    0.333727    0.238599
N     -1.633694   -0.159902    0.008173
N      3.226793   -0.345034   -0.559036
N      3.969614   -1.427407    1.507643
O      1.046765    0.034897    1.147147
O      2.933797   -2.289601    1.701681
O      4.881806   -1.480199    2.388631
H     -3.358864    0.508962    1.656834
H     -4.831489    1.408045    0.999324
H     -4.366806    0.224057   -1.197603
H     -4.920941   -0.901277    0.111075
H     -2.687898    2.662681    0.792526
H     -3.483653    2.353668   -0.777684
H      5.557414    1.810532   -1.325879
H     -2.707330   -1.432297   -1.322621
H     -2.806801   -1.803618    0.450671
H     -0.858522    1.743365   -0.195476
H     -1.741072    1.185876   -1.632543
H      3.249485    0.989705   -2.300605
H     -0.450200   -1.837158    0.129264
H     -0.552165   -1.182140   -1.513478
H      1.945170   -2.030130   -0.399115
H      1.804676   -1.041572   -1.906393
H      0.891172    0.813261   -0.681343
H      0.150167    0.049320    1.588227
