25

C     -1.841525    0.030175    1.740418
C     -2.550387    0.623754    0.791166
C      0.776561    0.615243   -0.690932
C     -0.418602   -0.095563    1.347412
C     -0.353597    0.891545    0.185544
C      1.671040   -0.316067   -0.419404
C      3.067233   -0.215958   -0.876944
C     -0.111108   -1.469515    0.744254
C     -1.753134   -0.773661   -0.947427
C     -1.704859    0.618867   -0.449180
N      3.886809   -1.159546   -0.576948
O      3.540339    0.850158   -1.617481
O     -2.485799   -1.046688   -1.915187
O     -2.083653    1.560636   -1.364531
O      1.240347   -1.412979    0.326391
O     -0.993047   -1.727182   -0.334388
H     -2.237754   -0.321292    2.683352
H     -3.541803    1.042116    0.853098
H      0.901894    1.184988   -1.599308
H      0.292817    0.132842    2.137495
H     -0.380645    1.905398    0.606447
H     -0.263816   -2.264776    1.494252
H      3.602109   -2.001222   -0.017803
H      4.504682    1.154314   -1.614846
H     -2.764103    2.194411   -1.043320
