41

C     -3.770986   -2.028162   -1.183594
C     -3.430618   -2.768756    1.167369
C      3.930168   -2.214828   -1.135076
C      3.933446   -1.464848    1.224440
C      0.920040    3.781104    0.154736
C     -1.549418    3.563779   -0.178832
C     -3.331795   -1.591166    0.218990
C      3.526513   -1.110396   -0.191800
C     -0.363924    0.702249    0.586702
C      0.245085    0.777049   -0.778579
C     -1.731556    0.151690    0.595250
C      1.680828    0.429205   -0.669265
C     -0.229954    2.834694   -0.049461
O     -2.662652    0.896703    0.994801
O      2.517237    1.336097   -0.947776
O     -1.994657   -1.130715    0.183248
O      2.161517   -0.789443   -0.292737
O     -0.309816    1.996136    1.033838
O      0.024275    2.066170   -1.176452
H     -4.860105   -1.829437   -1.231893
H     -3.188161   -1.424902   -1.902893
H     -3.529544   -3.087793   -1.279361
H     -2.515888   -2.791961    1.805457
H     -3.499089   -3.701363    0.543270
H     -4.336460   -2.688105    1.793743
H      3.296040   -3.101072   -0.910580
H      3.767727   -1.919964   -2.172234
H      4.985086   -2.479243   -0.918858
H      4.950125   -1.916293    1.162598
H      3.969010   -0.519762    1.815180
H      3.274882   -2.224646    1.679165
H      1.664390    3.276546    0.804232
H      1.435407    4.009561   -0.799388
H      0.558735    4.680734    0.687472
H     -2.239186    2.954370   -0.780840
H     -1.404842    4.563927   -0.645543
H     -1.978867    3.659131    0.833227
H     -4.026180   -0.801262    0.599352
H      4.126568   -0.204696   -0.470204
H      0.274728    0.074501    1.262290
H     -0.288113    0.035167   -1.429991
