42

C     -0.886729    0.195317    0.461916
C      0.610776    0.224979    0.288703
C     -1.597021    0.490284   -0.802314
C      1.124678    1.540975   -0.153468
C      6.797394   -0.288819   -1.043679
C      6.752760   -0.845148    0.358604
C     -5.495775    0.901936    0.325478
C     -5.286303   -0.310619   -0.545728
C     -3.055098    0.502849   -0.813309
C      5.378698    0.018424   -1.332092
C      5.610317   -0.045192    0.938118
C      2.621408    1.452248   -0.292182
C     -3.806964   -0.706345   -0.437624
C     -5.045894   -1.845626    1.053198
N     -5.888277   -1.416649    0.176225
N     -3.839008   -1.049941    0.963674
N      4.652641    0.103740   -0.118469
O      4.906880    0.178494   -2.509067
O      5.487026    0.408061    2.089898
O      3.285270    2.453895   -0.660826
O     -5.244697   -2.899679    1.950107
O      3.308377    0.290641   -0.023650
S     -3.843174    1.715116    0.303695
H     -1.119192    0.922570    1.276408
H     -1.113625   -0.856686    0.753983
H      1.055178    0.018669    1.308989
H      0.915998   -0.618399   -0.368171
H     -1.200560    1.441072   -1.272777
H     -1.260421   -0.293024   -1.547467
H      0.672913    1.964354   -1.047887
H      0.961915    2.268138    0.684482
H      7.347317    0.672149   -1.053920
H      7.223581   -1.016014   -1.766990
H      6.455900   -1.927098    0.308341
H      7.688216   -0.679683    0.914405
H     -6.250988    1.589127   -0.105271
H     -5.782041    0.648274    1.364111
H     -5.613656   -0.208664   -1.568855
H     -3.434198    0.804051   -1.837249
H     -3.687347   -1.574584   -1.106664
H     -3.245196   -0.855095    1.773155
H     -6.161076   -3.368098    2.012816
