42

C     -1.169141   -0.431832    0.493932
C      0.353079   -0.609927    0.460795
C     -1.857574   -1.739858    0.497016
C      0.960181    0.764223    0.457658
C      6.737776    1.507823   -0.600351
C      6.652725    0.066571   -0.160106
C     -5.562941   -0.517729    1.437548
C     -5.285147   -0.363493    0.006710
C     -3.326049   -1.757062    0.549290
C      5.371781    1.862615   -1.076599
C      5.251219   -0.349322   -0.510183
C      2.443565    0.685745    0.425948
C     -4.159451   -1.179669   -0.475191
C     -3.960575    1.051103   -1.110102
N     -4.984805    0.998643   -0.344822
N     -3.461348   -0.281375   -1.354720
N      4.482200    0.813058   -0.783475
O      5.121981    2.956900   -1.649206
O      4.861761   -1.528558   -0.545518
O      3.106722    0.432833    1.487350
O     -3.401976    2.206319   -1.633532
O      3.127498    0.887023   -0.763253
S     -3.931233   -0.947016    2.104363
H     -1.365623    0.054944    1.489917
H     -1.391898    0.242698   -0.329636
H      0.653763   -1.111911   -0.474759
H      0.721664   -1.181663    1.318142
H     -1.561888   -2.267730   -0.465887
H     -1.414097   -2.418610    1.293657
H      0.679728    1.338524    1.384233
H      0.616508    1.341622   -0.420218
H      7.461839    1.605175   -1.417829
H      7.034670    2.170091    0.245866
H      6.759157    0.038372    0.958339
H      7.392947   -0.589194   -0.643757
H     -5.948732    0.439221    1.876866
H     -6.240665   -1.376843    1.681338
H     -6.214625   -0.637891   -0.563767
H     -3.642326   -2.833062    0.708030
H     -4.567703   -1.990892   -1.163900
H     -2.735264   -0.467097   -2.070344
H     -3.607702    3.117230   -1.222509
