49

C     -1.533010    2.071218    0.430150
C     -2.892259    2.314532   -1.556177
C     -2.428628   -2.000961    3.145697
C      5.710494    1.639791   -0.666101
C      1.660667    0.140698   -0.255027
C     -1.819177    1.415422   -0.886125
C     -2.631675   -1.300161    1.825550
C      4.676245    2.140798    0.269906
C      3.163675    0.362894   -0.383698
C     -2.379068    0.062807   -0.865785
C     -1.273180   -1.027365    1.144946
C     -3.191240   -2.267535    0.868244
C      3.950188   -0.819696   -0.028851
C     -0.592887   -1.632970   -1.168283
C     -1.647761   -1.085108   -0.281021
N      3.557461    1.536094    0.358661
N     -2.675932   -2.165921   -0.260778
O      4.895491    3.258651    1.057324
O     -2.760596   -0.316617   -2.177883
O     -0.398371   -2.050270    1.526508
O     -4.202173   -3.198736    1.218310
O      4.870303   -0.832075    0.830490
O      3.675580   -2.027078   -0.677254
O     -0.953437   -2.563723   -1.924132
S      1.091905   -1.175080   -1.314889
H     -2.247516    1.765633    1.223230
H     -1.719677    3.196098    0.323903
H     -0.479138    2.009851    0.685977
H     -2.938567    2.032328   -2.630078
H     -2.669960    3.371217   -1.398310
H     -3.860383    2.027221   -1.096500
H     -3.371067   -2.587649    3.337010
H     -2.345955   -1.294164    3.992843
H     -1.611121   -2.713706    3.054933
H      5.357052    0.830804   -1.305351
H      6.567136    1.214310   -0.067614
H      6.157151    2.488718   -1.238235
H      1.176476    1.092180   -0.634056
H      1.380339   -0.042302    0.796693
H     -0.937022    1.523503   -1.561476
H     -3.218899   -0.374931    1.920623
H      3.345635    0.595659   -1.473501
H     -3.382416    0.093390   -0.308597
H     -0.885487   -0.107192    1.554254
H      4.184464    3.820384    1.465747
H     -3.534100   -0.923944   -2.146162
H      0.091365   -1.826487    2.353603
H     -4.665071   -3.747481    0.503692
H      3.734146   -2.923054   -0.206634
