49

C     -3.845943    2.834433   -0.821595
C     -2.681869    2.249848    1.253929
C     -2.141680   -3.624884    0.348598
C      5.250388   -0.593608    1.495407
C      2.603275    1.368785    0.004541
C     -2.627412    2.145025   -0.234609
C     -2.474742   -2.150417    0.195411
C      4.260940   -1.359428    0.710624
C      3.360348    0.340692   -0.825370
C     -2.607341    0.743984   -0.744181
C     -1.582925   -1.481156   -0.812032
C     -2.166941   -1.391038    1.422587
C      4.629437    0.963199   -1.279652
C     -0.141681    0.419356   -0.642120
C     -1.469384   -0.089976   -0.265980
N      3.528685   -0.918293   -0.215657
N     -1.618210   -0.269542    1.148942
O      4.177276   -2.732199    1.092505
O     -3.838308    0.160003   -0.492232
O     -0.324121   -2.109509   -0.799832
O     -2.465525   -1.894872    2.702214
O      5.749826    0.399488   -1.239538
O      4.634805    2.262405   -1.794840
O      0.137993    0.610000   -1.785401
S      1.041892    0.747994    0.628088
H     -4.159903    3.700487   -0.217492
H     -3.663943    3.200035   -1.850277
H     -4.715576    2.146128   -0.886786
H     -3.218605    1.433363    1.758573
H     -1.671228    2.296550    1.724215
H     -3.186933    3.197174    1.545768
H     -2.301281   -4.087130   -0.647689
H     -2.954827   -4.045840    1.001009
H     -1.145398   -3.803148    0.748793
H      5.169188    0.495825    1.399701
H      5.180406   -0.841181    2.588627
H      6.258884   -0.884787    1.115116
H      3.257935    1.681440    0.829553
H      2.440303    2.234560   -0.681490
H     -1.748409    2.748901   -0.601870
H     -3.541192   -2.077010   -0.121678
H      2.787388    0.183491   -1.803126
H     -2.528113    0.811569   -1.867905
H     -2.016009   -1.501263   -1.838150
H      3.588193   -3.300063    0.485751
H     -4.278003    0.451264    0.319913
H     -0.048480   -2.190453    0.149483
H     -2.307643   -1.362390    3.529706
H      5.414467    2.882186   -1.714138
