53

C     -2.981826    2.668172    0.137028
C      7.955978    1.376225   -0.833539
C      6.909568    2.207712   -1.098093
C      7.685598    0.152927   -0.247352
C      5.605746    1.827439   -0.783040
C      6.396724   -0.238727    0.071185
C     -1.852015   -2.895035    0.942760
C     -2.367050   -1.941105   -1.162722
C      3.676728   -0.569655    1.204110
C      2.904773    0.702184   -0.648577
C     -2.426599   -4.099696    0.616421
C     -2.947557   -3.139522   -1.509278
C      2.367720   -0.911653    1.503231
C      1.596869    0.346771   -0.330548
C     -2.021714    0.191496    1.528115
C     -3.399860    0.492739    1.018008
C     -4.607199    1.307731   -0.906567
C      5.339848    0.607329   -0.198743
C      3.957472    0.247600    0.115362
C     -1.806928   -1.815936    0.091371
C     -2.985543   -4.210036   -0.647308
C      1.305732   -0.459664    0.741647
C     -1.170468   -0.516463    0.489199
C     -5.801934    1.795814   -0.215154
F     -3.561843   -5.391866   -0.998412
N     -3.409646    1.333918   -0.134024
O     -5.744179    2.214671    0.961745
O     -7.020166    1.801599   -0.856033
O      0.045245   -0.821384    1.075724
H     -2.154791    2.958586   -0.571953
H     -3.827989    3.375161   -0.069517
H     -2.691418    2.828606    1.182606
H      8.965752    1.671076   -1.077051
H      7.058988    3.190047   -1.561017
H      8.529417   -0.514949   -0.035407
H      4.771201    2.477449   -0.988078
H      6.196414   -1.205121    0.532310
H     -1.412656   -2.821076    1.948889
H     -2.352968   -1.101335   -1.876504
H      4.527732   -0.904829    1.777024
H      3.151271    1.336463   -1.488806
H     -2.443857   -4.925958    1.313244
H     -3.387518   -3.237443   -2.493738
H      2.236679   -1.554389    2.370744
H      0.792144    0.708854   -0.934525
H     -2.034103   -0.387758    2.450196
H     -1.514546    1.167723    1.722766
H     -3.951710    0.996751    1.836346
H     -3.907730   -0.475837    0.855255
H     -4.836456    0.256329   -1.241929
H     -4.404382    1.858184   -1.859853
H     -1.044200    0.088513   -0.402694
H     -7.908750    1.951367   -0.394597
