76

C     10.996799   -2.715155   -0.001227
C      9.627064   -2.343611    0.509221
C      9.171998   -1.114202   -0.254997
C      7.779916   -0.781806    0.294855
C      7.305368    0.431130   -0.448038
C      5.946342    0.834630    0.020871
C      4.974732   -0.274981   -0.207794
C      3.584144    0.174587    0.273330
C      2.683339   -0.945871    0.027658
C      1.647633   -0.874769   -0.750240
C      1.251189    0.320174   -1.473786
C     -0.191749    0.667456   -0.980238
C     -0.068473    0.890760    0.464720
C     -1.232258    1.274446    1.288813
C     -1.930522    2.531146    1.053486
C     -2.719286    2.857826   -0.123296
C     -3.980489    2.133902   -0.400226
C     -8.195759   -1.330972   -0.056770
C     -7.319000    0.545818   -1.277339
C     -8.871176   -1.755106   -1.201916
C     -7.995065    0.113548   -2.407489
C     -6.716765    0.267225    1.096869
C     -4.712447    0.239478    2.506145
C     -7.426637   -0.187740   -0.100939
C     -5.320264   -0.326803    1.239841
C     -8.769568   -1.037810   -2.363217
C     -3.977044    0.699424   -0.602772
N     -4.548955   -0.115064    0.131540
O     -5.559912   -0.003478    3.602778
O     -9.421706   -1.432709   -3.496672
O     -3.284222    0.139682   -1.716487
H     11.601811   -3.139506    0.809402
H     10.898888   -3.408497   -0.863032
H     11.502192   -1.788203   -0.338954
H      8.915552   -3.177758    0.403166
H      9.654324   -2.076958    1.579699
H      9.046390   -1.297500   -1.333505
H      9.825331   -0.254883   -0.032748
H      7.152462   -1.664427    0.108067
H      7.938716   -0.571372    1.370705
H      7.993138    1.284451   -0.317589
H      7.257296    0.206186   -1.539472
H      5.589295    1.712690   -0.551974
H      5.969894    1.077399    1.099867
H      5.199980   -1.209747    0.347079
H      4.870285   -0.539041   -1.279777
H      3.717097    0.334490    1.392732
H      3.321355    1.147518   -0.113980
H      2.896164   -1.887070    0.525569
H      1.009187   -1.770803   -0.887333
H      1.173894    0.147722   -2.575960
H      1.800516    1.234831   -1.326293
H     -0.521334    1.457939   -1.627774
H     -0.773353   -0.266317   -1.192340
H      0.754336    1.654437    0.669984
H      0.428380   -0.055889    0.883887
H     -1.928120    0.382151    1.368515
H     -0.834867    1.326952    2.362318
H     -1.168685    3.368299    1.221185
H     -2.610640    2.693076    1.961888
H     -2.164367    2.957688   -1.086517
H     -3.059689    3.957352    0.032547
H     -4.464446    2.579726   -1.346221
H     -4.762663    2.411523    0.373571
H     -8.272485   -1.898031    0.874553
H     -6.704418    1.428593   -1.246796
H     -9.475867   -2.648299   -1.182262
H     -7.924299    0.662015   -3.317751
H     -6.673913    1.352087    1.173902
H     -7.318153   -0.094317    1.976490
H     -3.751717   -0.315322    2.678327
H     -4.503031    1.313074    2.438855
H     -5.455997   -1.456995    1.454346
H     -5.831823   -0.945700    3.533116
H     -9.992490   -2.267894   -3.487660
H     -3.051350   -0.836821   -1.633474
