58

C     -3.699507    0.768404    0.770124
C     -4.826870    1.746709    0.662320
C     -3.065609    0.534896    1.897845
C     -4.502729    2.820115   -0.310557
C      7.912809    2.033608   -1.028958
C      7.182991    3.207203   -1.123775
C      7.273837    0.842403   -0.907143
C     -1.976278   -0.402862    2.025911
C     -4.269792    2.296290   -1.692885
C      1.982975   -1.629921    0.525481
C      0.904379   -1.323537    1.222067
C      5.158474    1.947297   -0.970514
C     -1.966411   -3.514040    0.275113
C      4.075043   -1.031196   -0.655122
C      5.807534    3.159077   -1.094142
C      3.222023   -0.782195    0.546382
C      5.857563    0.774124   -0.874431
C     -1.540111   -1.168500    0.827813
C     -0.355198   -2.051138    1.291360
C     -2.549068   -2.131722    0.292550
C     -0.502010   -3.280735    0.507667
C     -5.489747    1.636698   -2.191848
Cl     4.847103    4.645259   -1.212668
O      2.867672    0.504128    0.764013
O     -3.719989   -2.191579    1.063528
O     -0.042936   -4.360392    1.303092
O     -5.428532    0.987665   -3.281124
O     -6.718783    1.660820   -1.573498
O      5.276901   -0.427576   -0.756541
H     -3.410211    0.247827   -0.115856
H     -5.054449    2.171801    1.681955
H     -5.726009    1.159618    0.410750
H     -3.411763    1.102194    2.764306
H     -5.359977    3.554815   -0.325869
H     -3.614263    3.418563    0.053205
H      9.002408    2.104184   -1.056483
H      7.655074    4.170557   -1.222160
H      7.827477   -0.106560   -0.829942
H     -2.114429   -1.138104    2.878412
H     -1.058846    0.172492    2.370629
H     -3.457163    1.526641   -1.638269
H     -3.942632    3.124820   -2.372818
H      1.928016   -2.534419   -0.065646
H      0.973806   -0.405137    1.819722
H      4.055237    1.982367   -0.976413
H     -2.371502   -4.138974    1.111153
H     -2.124566   -4.037963   -0.693958
H      4.128732   -2.139243   -0.886172
H      3.445645   -0.668499   -1.546658
H      3.811605   -1.167277    1.432773
H     -1.210296   -0.483004    0.015575
H     -0.521090   -2.310712    2.378805
H     -2.834538   -1.916290   -0.779641
H      0.099346   -3.347791   -0.418634
H      3.086348    0.777588    1.688450
H     -3.724871   -2.983567    1.656537
H     -0.402617   -4.313461    2.207644
H     -7.390210    0.908236   -1.578722
