50

C     -4.233839    1.358895    3.502598
C      6.954675    0.351916    2.393582
C     -5.632925   -0.743628   -2.416963
C      6.955185    0.591356    1.035952
C      5.790162    0.078457    3.040845
C     -4.438315   -1.425643   -2.515441
C     -5.857813   -0.030765   -1.262493
C      0.110147    0.475601   -3.613188
C      1.351914    0.739442   -4.146528
C      5.783244    0.558657    0.311942
C      4.615393    0.046074    2.312839
C     -3.498056   -1.404569   -1.508511
C     -4.902869   -0.006000   -0.233492
C     -0.019663    0.216297   -2.245723
C      2.434203    0.737978   -3.301339
C      2.128714   -0.005004    0.673095
C      4.599599    0.281397    0.965918
C     -3.720602   -0.680107   -0.328872
C      1.074583    0.218346   -1.411367
C      0.932862   -0.038423   -0.065244
C      2.325548    0.480818   -1.929688
C      3.363384    0.255243    0.154970
C     -2.687517   -0.674164    0.729940
C     -0.312723   -0.325880    0.600542
C     -2.949565    0.420006    1.678475
N      3.430869    0.497433   -1.166421
N     -1.433080   -0.382433    0.046257
O     -0.290957   -0.564153    1.978686
O     -2.263954    1.476899    1.706978
O     -3.986701    0.300091    2.586688
H     -5.240592    1.203825    3.937743
H     -4.185314    2.333196    3.001783
H     -3.484637    1.307341    4.335166
H      7.873922    0.377465    2.962066
H     -6.344733   -0.786861   -3.232119
H      7.889262    0.813828    0.499068
H      5.705460   -0.120511    4.103590
H     -4.262211   -1.993855   -3.439064
H     -6.786334    0.514120   -1.157231
H     -0.758068    0.470362   -4.254837
H      1.482744    0.945931   -5.214236
H      5.777896    0.748742   -0.770342
H      3.668804   -0.169826    2.802715
H     -2.557489   -1.943994   -1.590801
H     -5.133154    0.577501    0.654955
H     -1.008518    0.019144   -1.891226
H      3.417249    0.943055   -3.702009
H      2.018557   -0.204888    1.721310
H     -2.644068   -1.642865    1.268671
H     -1.050678   -1.053348    2.390761
