62

C     -5.767205    1.577344    0.074188
C     -4.748680    3.793738   -0.255049
C     -4.943411    2.851220    1.976120
C      5.744005    0.630125   -1.564551
C     -1.623115   -3.017152   -2.500543
C     -0.864982   -2.001392   -2.998020
C     -2.351266   -2.826160   -1.356170
C      5.660925   -3.202122    1.601028
C      6.578675   -2.665106    0.727659
C     -0.826860   -0.769406   -2.347842
C     -2.306748   -1.585548   -0.710228
C      4.405274   -2.582924    1.690941
C      6.257953   -1.561365   -0.020852
C      0.439297   -1.232471    1.002268
C      1.282285    0.987477    1.361239
C      1.719668   -1.551485    1.805432
C      2.487981    0.444321    0.586534
C     -1.085228    0.670452    0.927981
C     -1.545696   -0.555056   -1.202813
C     -1.491692    0.749939   -0.527581
C      4.080443   -1.480055    0.945675
C      5.000889   -0.963663    0.087681
C     -2.794085    1.471483   -0.664524
C     -4.646074    2.490225    0.535225
N     -3.416461    1.809009    0.367671
N      0.168144    0.131527    1.209918
N      2.808211   -0.876921    1.093266
O     -3.301343    1.758291   -1.909715
O      4.753265    0.139701   -0.696679
H     -5.366098    0.600483   -0.318502
H     -6.320103    2.030996   -0.773596
H     -6.435109    1.283312    0.908270
H     -3.952953    3.912629   -0.992224
H     -4.697584    4.680089    0.414556
H     -5.721641    3.865061   -0.793483
H     -4.578133    2.092195    2.683375
H     -6.053797    2.967633    2.054059
H     -4.533313    3.854287    2.254533
H      6.682202    0.842674   -0.991967
H      5.926093   -0.130417   -2.349276
H      5.351254    1.547427   -2.045737
H     -1.683833   -3.993307   -2.973803
H     -0.298615   -2.174019   -3.902289
H     -2.953538   -3.627592   -0.957586
H      5.859229   -4.056718    2.203074
H      7.540871   -3.161198    0.675377
H     -0.193031   -0.012648   -2.817451
H     -2.887476   -1.485488    0.173538
H      3.698743   -3.009422    2.381179
H      6.977744   -1.152225   -0.696672
H     -0.383798   -1.841309    1.444307
H      0.643697   -1.577537   -0.011121
H      1.095443    2.039006    1.153494
H      1.612032    0.934075    2.440531
H      1.836111   -2.653385    1.812160
H      1.594624   -1.086125    2.782599
H      2.195331    0.421524   -0.476280
H      3.313665    1.176649    0.703170
H     -1.092284    1.739361    1.290387
H     -1.860861    0.175541    1.549062
H     -0.674055    1.347200   -1.033694
H     -4.314985    1.817220   -2.096782
