40

C      3.441601    0.530116   -0.366619
C     -0.255967    3.699586   -1.780796
C      3.323321   -2.963353    0.895517
C     -1.575365   -0.185616    2.892392
C     -2.665437   -1.010990    2.757671
C     -0.816983    0.150627    1.767895
C     -2.985814   -1.489435    1.514380
C      1.975586    0.826053   -0.646092
C      0.243442    2.342809   -1.319631
C     -1.141242   -0.330007    0.524312
C     -2.222173   -1.153338    0.373070
C      1.102797   -0.111763   -0.417095
C     -0.333482    0.073362   -0.657786
C     -0.658020    1.427110   -1.100945
C      1.558170   -1.437108    0.121178
C     -2.631188   -1.736712   -0.886849
F     -1.655897   -2.566363   -1.476159
F     -3.078287   -0.933785   -1.870821
F     -3.676645   -2.650577   -0.635694
N      1.627012    2.124567   -1.114378
N     -2.035740    1.825265   -1.307317
O      0.731494   -2.355595    0.352180
O     -2.821633    1.996862   -0.224267
O     -2.436954    1.991258   -2.449625
O      2.867157   -1.742602    0.395060
H      3.997559    1.464903   -0.676914
H      3.792277   -0.241731   -1.037709
H      3.616571    0.382052    0.713187
H     -0.894784    4.063879   -0.949085
H     -0.793153    3.629733   -2.727318
H      0.620481    4.391749   -1.809775
H      2.596325   -3.470164    1.562393
H      3.628285   -3.691329    0.127327
H      4.247496   -2.740145    1.499364
H     -1.314622    0.196250    3.868761
H     -3.258728   -1.270863    3.650661
H      0.049790    0.800416    1.841708
H     -3.849785   -2.134484    1.452591
H     -0.659114   -0.560268   -1.562371
H      2.341648    2.859629   -1.292398
