28

C      0.351880   -1.096368   -1.139644
C     -0.888193   -0.787908   -1.910072
C     -0.518703    0.372458    0.648807
C      1.601022   -0.946599    0.972748
C      0.252808   -0.865714    0.330016
C     -1.874735    0.208510   -0.057889
C     -2.880731    1.122311    0.464976
N     -1.601313    0.367459   -1.460666
O     -3.439748    1.962125   -0.272058
O     -3.232687    1.068777    1.803005
O      3.945731    0.641411    1.572139
O      2.173236    1.612409   -0.275598
O      3.611397   -0.464923   -0.720222
P      2.806261    0.215813    0.395515
H      0.571271   -2.189416   -1.291875
H      1.228846   -0.559826   -1.575084
H     -1.608030   -1.643580   -1.934313
H     -0.585207   -0.597367   -2.979527
H     -0.761043    0.462218    1.721293
H     -0.085930    1.292850    0.223779
H      1.979804   -1.980979    0.825643
H      1.514018   -0.836951    2.093698
H     -0.344600   -1.728776    0.752226
H     -2.175938   -0.867046    0.093298
H     -2.518477    0.391874   -1.962101
H     -3.975487    1.663854    2.197358
H      3.553488    1.156105    2.316000
H      2.901060    2.027277   -0.831456
