50

C     -5.951756   -1.853348    1.570569
C      6.988175    1.644711    1.314898
C     -4.250402    3.106105   -1.391822
C      5.812983    2.110254    1.860452
C      6.984366    0.604395    0.411390
C     -4.224985    3.280987   -0.020037
C     -3.770790    1.943997   -1.952883
C     -0.012181   -3.155456   -2.013117
C      1.210512   -3.542148   -2.498698
C      4.635955    1.488185    1.461132
C      5.817138    0.000520    0.026702
C     -3.725751    2.311742    0.820952
C     -3.267395    0.968610   -1.093912
C     -0.092393   -2.121502   -1.103014
C      2.324626   -2.878690   -2.056695
C      2.126010    0.196570    0.643920
C      4.619689    0.457747    0.567704
C     -3.246448    1.152127    0.270349
C      1.011819   -1.442744   -0.646364
C      0.924346   -0.414309    0.259148
C      2.257955   -1.836617   -1.141141
C      3.354536   -0.176696    0.169238
C     -2.703241    0.086687    1.140556
C     -0.322756    0.054060    0.818573
C     -3.690529   -1.049147    1.090931
N      3.355960   -1.198568   -0.719987
N     -1.480033   -0.388207    0.578190
O     -0.263905    1.130954    1.743784
O     -3.409744   -2.176793    0.626360
O     -4.968347   -0.831325    1.583804
H     -5.679604   -2.576115    0.758896
H     -5.989914   -2.401779    2.542705
H     -6.910826   -1.389360    1.304642
H      7.921497    2.133424    1.627413
H     -4.640637    3.861342   -2.064795
H      5.801475    2.934443    2.578275
H      7.933182    0.249597   -0.010431
H     -4.618792    4.220667    0.354185
H     -3.791109    1.810446   -3.012493
H     -0.894211   -3.678502   -2.361110
H      1.266656   -4.367173   -3.224169
H      3.736816    1.879711    1.908919
H      5.776125   -0.828210   -0.688561
H     -3.702692    2.440900    1.885604
H     -2.888170    0.052721   -1.522260
H     -1.068518   -1.874235   -0.769623
H      3.305658   -3.153828   -2.415657
H      2.057425    1.008258    1.358692
H     -2.602135    0.460353    2.181219
H     -1.055640    1.745237    1.893637
