49

C     -3.388678   -3.136291    0.478472
C     -4.174186    3.136318    0.333944
C      0.184816    0.350099   -2.055490
C      5.899738    0.482116    1.442839
C     -2.211603   -2.213207    0.044028
C     -3.561652    1.832350   -0.164204
C      3.714033   -2.035113   -1.020448
C      2.376819   -1.825218   -1.219547
C      4.413335   -1.172158   -0.186733
C      1.813956    1.231964    0.923035
C      0.338109    1.328768    0.798220
C     -2.639297   -0.832220    0.409306
C     -2.342077    1.466322    0.634016
C      0.287464   -0.524287   -0.822198
C      1.745969   -0.748211   -0.580453
C      2.417648    0.092515    0.227443
C     -0.369243    0.065940    0.382091
C      3.787727   -0.118098    0.434495
N     -1.760685    0.246558    0.138045
O      4.521921    0.721161    1.255545
H     -4.327822   -2.583021    0.171839
H     -3.339658   -3.260083    1.558868
H     -3.268531   -4.091464   -0.080398
H     -3.366326    3.773057    0.754181
H     -5.010247    2.958456    1.012205
H     -4.543193    3.673311   -0.562241
H      0.504679   -0.305594   -2.921344
H     -0.827104    0.688739   -2.281639
H      0.905632    1.212988   -2.043014
H      6.116702   -0.399975    2.066006
H      6.383670    1.375130    1.909132
H      6.422784    0.315909    0.457595
H     -2.163635   -2.400076   -1.049474
H     -1.349368   -2.580118    0.624653
H     -4.353692    1.065597    0.044804
H     -3.420121    1.872822   -1.240452
H      4.214932   -2.875098   -1.517352
H      1.753582   -2.440875   -1.844063
H      5.454568   -1.375322   -0.053843
H      2.143628    1.171842    2.003231
H      2.347573    2.159353    0.542352
H     -0.071939    1.635327    1.777231
H      0.148011    2.169252    0.085657
H     -3.551740   -0.648526   -0.270269
H     -3.103831   -0.834602    1.423541
H     -1.661640    2.304395    0.789559
H     -2.731190    1.246467    1.680577
H     -0.102073   -1.509505   -1.116197
H     -0.257768   -0.667694    1.218199
