33

C     -1.704924   -3.486341   -0.281861
C     -1.588693   -2.245842    0.133417
C      0.737680    3.942803   -0.808870
C      0.845945    2.553729   -0.580469
C      2.021561   -3.363541    1.352792
C      1.810038   -1.990929    1.554500
C     -1.652586   -1.126838   -0.787274
C     -1.446645    3.919211    0.051653
C      1.381638    0.002170    0.148705
C      1.694653   -2.348570   -0.562650
C     -0.406690    4.599794   -0.489124
C     -0.183914    1.841122   -0.038674
C     -1.326891    2.540596    0.273610
C     -0.112409    0.376757    0.189185
Cl    -0.574588    6.342459   -0.762322
Cl    -2.718030    1.794182    1.013971
N      1.937946   -3.521706    0.016640
N      1.614421   -1.398069    0.381466
O     -0.624717   -0.286485   -0.915421
H     -1.852313   -3.749131   -1.328972
H     -1.654565   -4.318195    0.438916
H     -1.441861   -2.065973    1.188638
H      1.565852    4.473118   -1.237177
H      1.769219    2.099196   -0.845936
H      2.208992   -4.097111    2.131444
H      1.817047   -1.548163    2.534817
H     -2.615021   -0.589664   -0.595437
H     -1.847852   -1.553900   -1.839796
H     -2.361348    4.441300    0.312176
H      1.752592    0.209480   -0.910023
H      1.978046    0.675563    0.792260
H      1.581645   -2.215860   -1.647157
H     -0.604228    0.094838    1.116973
