43

C      2.184168   -2.026691   -1.263848
C      4.051834    0.702200    1.027296
C      2.453557    1.785011   -0.205160
C     -0.804536    3.312708   -1.465822
C     -2.536468   -3.470338    0.840602
C     -1.786395    3.932023   -0.744935
C     -3.563806   -3.023893    1.613388
C     -0.576315    1.968976   -1.332590
C     -1.696193   -2.563794    0.178473
C     -2.518759    3.150868    0.104126
C     -3.749773   -1.673411    1.725188
C      2.056669   -0.499907    0.558897
C      0.055233   -0.881519   -1.105958
C      1.170847   -1.304899   -0.289924
C     -1.306754    1.134608   -0.468954
C     -1.909285   -1.184472    0.310823
C     -2.280852    1.824599    0.226036
C     -2.947576   -0.784078    1.093815
N      2.973505    0.441841   -0.002250
N     -1.096511   -0.255551   -0.451938
S     -3.307101    0.931156    1.364630
H      1.595846   -2.434334   -2.082859
H      2.865927   -1.254865   -1.643609
H      2.734466   -2.780500   -0.661429
H      4.939687    0.921401    0.375726
H      4.229346   -0.209813    1.597790
H      3.828122    1.583813    1.613794
H      1.584068    1.915217    0.424136
H      3.188675    2.576373    0.158223
H      2.365847    1.973757   -1.272515
H     -0.216882    3.914923   -2.139181
H     -2.319873   -4.535656    0.699176
H     -1.962365    5.002524   -0.856449
H     -4.220292   -3.744287    2.131178
H      0.199435    1.572750   -1.957605
H     -0.924678   -2.974324   -0.446565
H     -3.299217    3.680070    0.666327
H     -4.592137   -1.347684    2.360209
H      1.485679   -0.020843    1.415283
H      2.724159   -1.248071    1.123008
H      0.462875   -0.209854   -1.911889
H     -0.396472   -1.713785   -1.729407
H      0.862297   -2.182250    0.424758
