64

C     -4.236050   -3.400340    2.536079
C      0.462517   -1.940558    1.356306
C      4.406121    2.663480   -0.166336
C     -7.068039    0.486798    0.889633
C      8.308350   -0.225498    0.944986
C      8.488998    0.806864    0.048301
C      7.108235   -0.894057    1.008036
C     -3.794134   -0.670990   -2.750434
C      7.426679    1.133437   -0.769730
C      6.067124   -0.548826    0.182370
C     -3.372013   -0.972452   -1.465633
C     -4.196583    0.615275   -3.039094
C      3.037419    0.664300   -0.303056
C      1.648736    1.229868   -0.390796
C     -3.775924    1.326573   -0.813443
C      5.081890    0.823199   -1.592507
C     -3.287204   -2.405474    1.952889
C     -1.025351   -1.717644    1.392709
C      6.222880    0.470923   -0.713552
C     -3.375055    0.054188   -0.517136
C     -4.195596    1.608416   -2.105125
C     -3.788694   -1.294792    1.452823
C     -1.474869   -0.592573    0.879777
C     -2.907204   -0.279362    0.866465
C     -5.241837   -1.024666    1.453761
C     -0.578615    0.396973    0.285738
N     -1.885474   -2.691917    1.958624
N      4.073895    1.464939   -0.831580
N     -4.611423    2.935224   -2.403702
O     -6.109136   -1.770838    1.894190
O     -1.020481    1.493561   -0.203812
O     -4.614436    3.943335   -1.474866
O     -4.986730    3.181346   -3.557639
O     -5.689835    0.191766    0.905478
O      0.793634    0.254723    0.194106
H     -4.763564   -2.897546    3.366031
H     -4.963143   -3.767499    1.818713
H     -3.671159   -4.234077    3.024111
H      0.973933   -1.207767    1.974025
H      0.692752   -2.942496    1.829659
H      0.814564   -2.049150    0.316755
H      4.989923    3.382589   -0.739151
H      5.049155    2.399068    0.724553
H      3.489205    3.094274    0.288515
H     -7.268738    1.360225    0.267070
H     -7.494239    0.545863    1.914574
H     -7.557963   -0.402984    0.402672
H      9.134134   -0.510327    1.607226
H      9.434194    1.327891    0.003676
H      6.996691   -1.710196    1.731634
H     -3.788155   -1.469344   -3.484333
H      7.588905    1.955422   -1.474654
H      5.151788   -1.117042    0.287245
H     -3.049922   -1.958784   -1.189534
H     -4.515969    0.796011   -4.052949
H      3.233565    0.435791    0.781051
H      3.019056   -0.297791   -0.894111
H      1.549976    2.193358    0.147433
H      1.297306    1.357801   -1.433218
H     -3.753944    2.076010   -0.033604
H      5.409759    1.409585   -2.479297
H      4.657477   -0.141792   -1.983448
H     -3.035046    0.647742    1.495982
H     -1.512340   -3.590036    2.367501
