72

C      5.098407    3.092871    0.267044
C     -4.012675    4.350336    0.962063
C      3.845078    1.072097    0.825902
C      3.536049    1.990495   -1.336090
C     -3.096446    2.467368    2.330663
C     -3.239678    2.179411   -0.021143
C      2.950408    0.071455    0.507539
C      2.645747    0.980469   -1.629743
C     -2.573451    1.202829    2.415345
C     -2.710423    0.904439    0.081825
C      4.137575    2.030353   -0.094562
C     -3.440231    2.976853    1.093767
C      2.329068   -0.002575   -0.721541
C     -2.364686    0.388237    1.311696
C      0.131604   -3.116701   -0.438216
C     -1.072078   -3.023110    0.471776
C      0.779167   -4.434472   -0.271537
C     -2.118725   -3.945957   -0.003612
C      1.391585   -1.077226   -1.012752
C     -1.808726   -0.944416    1.444504
O      0.311547   -5.546274   -0.527311
O      2.102050   -4.406235    0.247635
O     -3.163474   -3.440533   -0.535093
O     -2.081817   -5.331171    0.073901
O      0.834843   -1.127479   -2.140013
O     -1.505758   -1.382162    2.576004
O      1.061532   -2.069855   -0.118219
O     -1.625069   -1.706095    0.308254
C     -0.842092   -1.516552   -0.850669
C      3.246691    0.381656    0.423296
C     -2.225049    0.947751   -1.093218
C      1.952350    0.753963    0.132929
C     -0.798755    1.333548   -0.701396
C      3.474641   -0.646612    1.333704
C     -2.602920   -0.139153   -0.127358
C      1.144603   -0.879573    1.617129
C      0.875238    0.146865    0.709702
C     -0.523636    0.472364    0.464494
N      2.410835   -1.235278    1.893594
N     -1.323718   -0.744285    0.277529
H      5.491763    3.614950   -0.609306
H      4.621842    3.853113    0.931063
H      5.927856    2.608127    0.830420
H     -3.551636    5.005661    1.722585
H     -5.120411    4.349014    1.031634
H     -3.778484    4.759839   -0.060252
H      4.310222    1.094740    1.799216
H      3.800997    2.776994   -2.037540
H     -3.258611    3.101174    3.191770
H     -3.502537    2.557400   -1.009380
H      2.745946   -0.668300    1.264471
H      2.194468    0.979151   -2.607572
H     -2.296627    0.784178    3.380474
H     -2.560707    0.293401   -0.808250
H     -0.202098   -2.929018   -1.467436
H     -0.859675   -3.258409    1.527889
H      2.632796   -5.258934    0.360633
H     -2.936525   -5.816032    0.347104
H      0.244850   -1.409251   -1.009389
H     -1.065306   -2.578090   -0.653851
H     -1.396488   -1.251117   -1.782939
H      4.098658    0.856117   -0.027809
H     -2.219982    0.608224   -2.149900
H     -2.929504    1.772468   -0.981634
H      1.790678    1.538486   -0.562081
H     -0.845809    2.410401   -0.397399
H     -0.131853    1.223792   -1.557136
H      4.497917   -0.938083    1.560715
H     -3.042381    0.294414    0.785895
H     -3.211593   -0.936817   -0.571326
H      0.359923   -1.420528    2.125365
H     -0.937296    0.955288    1.381162
