55

C     -1.633081   -3.874070    0.059079
C     -2.238216    3.800520   -0.083455
C     -2.654454   -3.007024   -0.592599
C     -1.193120   -3.290171    1.364343
C     -2.785342    2.654668    0.694279
C     -1.716213    3.247207   -1.398924
C      3.317844    0.632951   -1.440855
C      4.542756    0.680003   -0.555074
C     -2.082442   -1.639421   -0.935020
C     -1.194276   -1.741022    1.316170
C     -1.751359    1.552021    0.961601
C     -0.579328    2.311656   -1.014504
C      2.630265   -0.677077   -1.103236
C      4.387945    0.095507    0.785704
C      0.930889    0.307773    0.446798
C     -0.851646   -1.374390   -0.086195
C     -1.233608    1.075048   -0.350577
C      2.117566   -0.602564    0.287223
C     -0.282066   -0.049129   -0.352675
N      3.083422   -0.170079    1.254777
H     -2.124304   -4.881698    0.225027
H     -0.805582   -4.104494   -0.646005
H     -3.054207    4.479804   -0.321645
H     -1.427453    4.295589    0.475624
H     -3.059748   -3.432663   -1.526661
H     -3.511969   -2.906499    0.103394
H     -1.876539   -3.648670    2.161127
H     -0.192366   -3.669172    1.601242
H     -3.697024    2.235394    0.229435
H     -3.092267    3.022243    1.697521
H     -1.313412    4.092045   -1.974438
H     -2.535522    2.719080   -1.901267
H      3.669688    0.637922   -2.496037
H      2.728794    1.523943   -1.239555
H      4.944693    1.736747   -0.518551
H      5.360253    0.127296   -1.107630
H     -1.815033   -1.613724   -2.002770
H     -2.902664   -0.922705   -0.771192
H     -2.237482   -1.490968    1.615317
H     -0.434200   -1.431716    2.058989
H     -2.323669    0.795795    1.526284
H     -0.978157    2.050216    1.588284
H      0.013967    2.054449   -1.885570
H      0.036278    2.872076   -0.291240
H      3.483892   -1.432479   -1.099333
H      1.847779   -0.973402   -1.794825
H      4.880172    0.793760    1.527551
H      4.989769   -0.852549    0.883934
H      0.666531    0.446579    1.528474
H      1.257537    1.316349    0.119078
H     -0.146586   -2.204997   -0.434528
H     -2.150103    0.901710   -0.992752
H      1.857802   -1.666992    0.578108
H      0.112685   -0.109502   -1.436503
H      3.012911   -0.691175    2.131300
