64

C     -5.596881    0.080374   -2.728910
C     -0.987395   -1.756828   -2.637811
C      4.805591    1.385104   -0.427667
C     -7.208488    2.813016   -0.484969
C      8.454024   -1.421007    1.720117
C      8.267601   -2.131069    0.543030
C      7.483961   -0.555765    2.125537
C     -2.522808    1.730005    3.239967
C      7.113061   -1.949452   -0.189200
C      6.325018   -0.382206    1.378076
C     -2.415178    1.865232    1.857546
C     -2.962893    0.554489    3.805491
C      2.741890    0.188179   -0.678056
C      1.949653   -1.056670   -0.544028
C     -3.181671   -0.336749    1.579470
C      4.898901   -0.940599   -0.636574
C     -4.223352    0.082593   -2.104059
C     -1.962014   -0.809430   -2.049261
C      6.117491   -1.073912    0.208946
C     -2.742947    0.834165    1.007772
C     -3.292370   -0.480909    2.959816
C     -3.976778    0.891924   -1.111625
C     -1.690438   -0.001797   -1.047334
C     -2.646671    0.925116   -0.472777
C     -5.034186    1.812062   -0.589317
C     -0.319134   -0.063582   -0.491825
N     -3.270859   -0.814218   -2.647970
N      4.089480    0.155121   -0.280391
N     -3.748705   -1.703028    3.521027
O     -4.702339    2.547773    0.361595
O      0.006614    0.694657    0.480857
O     -4.085005   -2.756650    2.684876
O     -3.869719   -1.896851    4.734561
O     -6.298595    1.899113   -1.067323
O      0.627206   -0.897603   -0.969241
H     -6.355535   -0.176560   -1.977156
H     -5.769965    1.082025   -3.115758
H     -5.627931   -0.660821   -3.575790
H     -0.135666   -1.228668   -3.111620
H     -0.674471   -2.539025   -1.914403
H     -1.446343   -2.339050   -3.486232
H      4.568280    1.912793   -1.376441
H      4.677519    2.096022    0.421740
H      5.887962    1.153722   -0.488875
H     -6.640481    3.722557   -0.213823
H     -8.037816    3.024841   -1.206557
H     -7.622960    2.306848    0.423485
H      9.364750   -1.590312    2.260372
H      9.028186   -2.824660    0.203487
H      7.631649   -0.000734    3.047336
H     -2.264782    2.540568    3.899588
H      7.026262   -2.537406   -1.105782
H      5.576229    0.311276    1.731947
H     -2.068039    2.794641    1.429073
H     -3.052705    0.433466    4.891942
H      2.709279    0.606145   -1.728940
H      2.231411    0.998054   -0.077663
H      2.463173   -1.898644   -1.053558
H      1.895111   -1.292964    0.560020
H     -3.447196   -1.164945    0.948972
H      4.432363   -1.934417   -0.645587
H      5.294925   -0.768266   -1.681934
H     -2.264494    1.979612   -0.669572
H     -3.520777   -1.436695   -3.438617
