44

C      5.025566    0.177878    0.780506
C     -3.972537    2.821180    1.259092
C     -4.806887    1.774532    1.650575
C     -2.670262    2.521075    0.943850
C     -4.327848    0.481625    1.714210
C     -1.903374   -3.324953   -1.979815
C     -2.298936   -2.971212   -0.681733
C      3.243390   -0.907755   -0.264375
C      3.154448    1.470000    0.032924
C      1.906741   -0.728766   -1.032658
C      1.839614    0.909979    0.624999
C     -0.734938    1.104928    0.677194
C     -0.542900   -1.318182   -2.120526
C     -2.155487    1.217171    1.001032
C     -1.036976   -2.485635   -2.658463
C     -0.932447   -0.951806   -0.813310
C     -0.272725    0.292818   -0.464036
C     -3.045627    0.249980    1.393541
C     -1.803440   -1.827450   -0.179385
Cl    -0.597415   -3.013578   -4.279266
N      3.976258    0.316537   -0.193472
N      1.163939    0.252567   -0.393299
S     -2.528700   -1.501430    1.463384
H      4.688118    0.420503    1.818463
H      5.496761   -0.821813    0.800656
H      5.833363    0.925877    0.538055
H     -4.363419    3.842738    1.213034
H     -5.835843    1.986003    1.904014
H     -2.007141    3.317216    0.639974
H     -4.950606   -0.353515    2.013338
H     -2.307929   -4.242074   -2.374391
H     -2.984591   -3.607563   -0.110214
H      3.078504   -1.426503    0.699145
H      3.883341   -1.612251   -0.876472
H      3.577868    2.234478    0.700589
H      2.853645    1.905670   -0.947255
H      2.306134   -0.461744   -2.064483
H      1.506858   -1.787412   -1.018106
H      1.416182    1.764257    1.140030
H      2.085520    0.166919    1.441235
H     -0.232265    0.784765    1.653654
H     -0.400572    2.171028    0.458577
H      0.116861   -0.712973   -2.722829
H     -0.440246    0.946890   -1.387982
