77

C      2.566102   -5.095822    0.975357
C     -0.666495   -3.691300   -2.456629
C     -7.646370    1.733297    2.447613
C     -6.892865    0.614002    2.604008
C      7.054675    2.221927    0.855354
C      6.993273    0.740365    1.061770
C     -4.590630    3.414549   -0.839867
C     -7.270133    2.699792    1.539435
C     -5.742139    3.552973   -0.112734
C     -5.743148    0.478812    1.824013
C     -3.781964    2.295894   -0.727212
C      6.111461    2.475105   -0.291026
C      5.631318    0.313998    0.565832
C      3.999050    2.212890    0.882311
C      4.219586    1.200776   -1.303134
C      2.573719    1.832937    0.729422
C      3.196097    0.150354   -0.985864
C      0.928364   -4.340345   -0.728188
C      1.892540   -2.721169    0.731812
C     -2.026836   -0.099249   -0.043030
C     -4.259545   -1.132728   -0.201000
C      1.773281   -4.014269    0.306310
C      0.226027   -3.330471   -1.302924
C     -6.120025    2.562625    0.761508
C     -3.431606    0.048725    0.298511
C     -5.337171    1.418516    0.908245
C     -4.156923    1.299574    0.142650
C      1.161856   -1.685353    0.131342
C     -1.430944   -0.302975   -1.323409
C     -4.181338   -1.277317   -1.688804
C      0.322896   -1.985808   -0.889942
C      1.395011   -0.369483    0.681653
C      4.969458    1.517209   -0.010862
N     -0.455991   -1.106395   -1.588059
N      2.369823    0.508432    0.142015
O     -1.821642    0.346462   -2.482930
O     -3.536719   -2.222589   -2.165523
O     -4.801191   -0.396151   -2.553473
O      0.715806   -0.005603    1.660928
H      3.526163   -5.163387    0.460654
H      1.988545   -6.044323    1.002271
H      2.712920   -4.738290    2.032441
H     -1.446415   -4.376123   -2.123139
H     -1.065888   -2.794326   -2.942174
H     -0.061151   -4.248040   -3.220152
H     -8.548433    1.836783    3.061744
H     -7.133029   -0.189076    3.301175
H      6.782000    2.801021    1.736917
H      8.066586    2.576400    0.542403
H      7.813887    0.296427    0.424295
H      7.192537    0.407743    2.090152
H     -4.272692    4.191785   -1.534503
H     -7.874653    3.586411    1.420977
H     -6.345055    4.444916   -0.235713
H     -5.168939   -0.395366    2.014079
H     -2.867802    2.218692   -1.288687
H      6.539454    2.195503   -1.281913
H      5.687107    3.495277   -0.299447
H      5.090336   -0.098651    1.460402
H      5.752906   -0.513551   -0.141972
H      4.295580    1.961795    1.944637
H      4.157188    3.307432    0.816874
H      3.744445    2.126208   -1.617074
H      4.914582    0.761464   -2.050048
H      2.002771    1.912814    1.681038
H      2.099247    2.553995    0.031314
H      2.501154   -0.030160   -1.839567
H      3.710154   -0.809650   -0.713996
H      0.824916   -5.384842   -1.080924
H      2.582354   -2.514397    1.565026
H     -1.610320   -0.936856    0.625537
H     -1.470250    0.807748    0.457718
H     -3.838759   -2.079278    0.231909
H     -5.316134   -1.124759    0.050742
H     -3.421832   -0.178649    1.459520
H     -1.169982    0.603142   -3.206200
H     -4.580165   -0.328019   -3.536625
