51

C      1.266632   -1.498370    2.411013
C     -5.507063    1.067135   -2.271968
C     -5.205189   -0.268188   -2.112385
C     -5.140887    1.931226   -1.263400
C     -4.557919   -0.720150   -0.978226
C     -4.488888    1.491982   -0.116434
C      4.615236   -1.041971   -1.051144
C      3.253365    0.829124   -0.651483
C      5.461245   -0.275916   -1.841926
C      4.081901    1.599395   -1.431801
C     -1.491973    1.099434    1.002866
C     -1.380602   -1.139962    0.077357
C     -0.043213    1.016220    1.494228
C     -0.062819   -0.532782   -0.335680
C     -3.496809   -0.357765    1.217715
C      1.730220   -0.615365    1.282880
C     -4.191236    0.165408    0.038871
C     -2.004464   -0.332227    1.156516
C      3.503038   -0.502242   -0.446122
C      5.185086    1.055852   -2.029283
C      2.655268   -1.369081    0.406531
N      0.654422    0.069825    0.707409
O      5.996379    1.877619   -2.811414
O      3.602240   -1.993497    1.280576
H      0.884756   -0.926181    3.262155
H      2.118081   -2.164677    2.733288
H      0.444312   -2.169478    2.068605
H     -6.024040    1.411306   -3.184198
H     -5.489363   -0.958124   -2.899155
H     -5.369724    2.981137   -1.369107
H     -4.331052   -1.770484   -0.858892
H     -4.210834    2.208898    0.672154
H      4.869178   -2.105818   -0.925209
H      2.416462    1.307500   -0.217127
H      6.330886   -0.679364   -2.318922
H      3.864957    2.648505   -1.577779
H     -1.458266    1.444597   -0.031107
H     -2.057652    1.800666    1.638940
H     -1.285856   -2.195320    0.445865
H     -2.026873   -1.235980   -0.829146
H      0.391148    2.032892    1.498934
H     -0.075215    0.685012    2.547718
H     -0.276414    0.227752   -1.135500
H      0.520542   -1.364505   -0.774271
H     -3.862238   -1.376397    1.505569
H     -3.772200    0.286105    2.107750
H      2.403270    0.153779    1.810621
H     -1.621031   -0.696432    2.130691
H      2.230336   -2.222652   -0.143273
H      6.765757    2.368060   -2.372795
H      4.187104   -1.246497    1.606783
