37

C      2.229313   -2.334823    0.232644
C     -5.027832   -0.895621   -0.031082
C      0.935417    1.537331   -1.064515
C      0.156083   -0.125790    0.422254
C     -0.361680    1.951028   -1.251344
C     -1.164386    0.277579    0.246830
C      4.386235   -1.376871    0.972465
C     -5.782763    1.399681    1.159952
C      2.932697   -1.098745    0.824713
C      1.202086    0.479353   -0.212769
C     -1.430192    1.309734   -0.584232
C      5.279176   -0.493249    0.234919
C      2.616584    0.068214   -0.017623
C     -3.883399    1.153159   -0.367925
N     -6.443780    0.980273    2.006705
N     -3.905352   -0.113523   -0.438478
N     -5.001668    1.905810    0.135813
N     -2.715521    1.816010   -0.835610
N      4.887541    0.486168   -0.482106
N      3.548736    0.736513   -0.580414
O      6.648356   -0.732704    0.317627
H      1.560243   -2.037535   -0.564189
H      3.029719   -3.003194   -0.188277
H      1.705460   -2.839652    1.046414
H     -4.950298   -1.881998   -0.608219
H     -6.013315   -0.517542   -0.298741
H     -5.009099   -1.153898    1.049218
H      1.781332    2.001678   -1.556480
H      0.309741   -0.939712    1.099663
H     -0.550516    2.782575   -1.923457
H     -1.953120   -0.220574    0.769603
H      4.574434   -2.463542    0.731103
H      4.657685   -1.294041    2.061041
H      2.471983   -0.885203    1.824936
H     -5.181065    2.845173   -0.315862
H     -2.864324    2.720779   -1.383687
H      7.325487   -0.042846   -0.039016
