77

C      1.835962    2.030698   -5.101769
C     -0.987654   -1.651552   -3.550659
C     -7.148660    0.369418    3.891587
C     -5.847115   -0.046393    4.052421
C      7.351704   -0.902736    1.058230
C      7.318867    0.608777    1.208054
C     -6.576475    0.491546   -0.836963
C     -7.655489    0.613057    2.637239
C     -7.382845    0.679126    0.265545
C     -5.020703   -0.226659    2.936121
C     -5.276607    0.079698   -0.709944
C      6.042183   -1.393743    1.653132
C      5.969793    0.971575    1.749804
C      4.809148   -0.148215   -0.079152
C      3.876652   -0.298693    2.242915
C      3.339275   -0.437320   -0.307827
C      2.939758    0.813739    1.794677
C      0.446864    0.209540   -4.209808
C      1.599270    1.524238   -2.641167
C     -2.758599   -1.016370   -0.649885
C     -2.560418    0.710030    1.048702
C      1.294027    1.252974   -3.957711
C     -0.070733   -0.532060   -3.150337
C     -6.849915    0.440051    1.515050
C     -3.363414   -0.545705    0.677442
C     -5.529279    0.017935    1.690606
C     -4.750707   -0.155666    0.539517
C      1.104714    0.810947   -1.573723
C     -1.328272   -1.353888   -0.305379
C     -2.691260    1.780436    0.058932
C      0.232313   -0.264324   -1.834457
C      1.449540    1.139232   -0.205090
C      5.123975   -0.230038    1.385729
N     -0.280226   -1.016535   -0.816949
N      2.550679    0.526721    0.427823
O     -1.261970   -2.223442    0.819817
O     -1.979416    1.820935   -0.954644
O     -3.627740    2.812666    0.205869
O      0.768833    1.969049    0.423103
H      2.585634    1.355808   -5.607015
H      2.432455    2.903810   -4.758400
H      1.077960    2.315936   -5.838875
H     -1.966936   -1.203720   -3.846366
H     -0.596193   -2.119778   -4.497722
H     -1.107559   -2.374139   -2.739082
H     -7.824275    0.522411    4.725615
H     -5.487594   -0.227463    5.052315
H      8.163760   -1.347306    1.667966
H      7.454268   -1.224469    0.013963
H      8.113419    0.962932    1.898807
H      7.477454    1.086628    0.200864
H     -7.050284    0.693425   -1.801220
H     -8.684761    0.945035    2.475122
H     -8.418664    1.007406    0.178740
H     -4.015502   -0.565195    3.059441
H     -4.707623   -0.051317   -1.597777
H      6.119652   -1.594042    2.722804
H      5.677179   -2.312625    1.136297
H      5.963547    1.032530    2.857271
H      5.536703    1.875686    1.271322
H      4.985728    0.870103   -0.512645
H      5.391063   -0.878093   -0.680983
H      3.402557   -1.289928    2.153124
H      4.134051   -0.072272    3.299607
H      3.052994   -1.441355    0.048683
H      3.158478   -0.399765   -1.398050
H      3.516252    1.754419    1.825583
H      2.058327    0.854251    2.464932
H      0.192746   -0.020990   -5.237459
H      2.273679    2.358682   -2.474263
H     -3.242944   -1.943106   -0.979438
H     -2.798305   -0.273840   -1.440448
H     -2.895874    1.106348    2.012771
H     -1.474134    0.426981    1.191802
H     -3.123095   -1.272626    1.475725
H     -0.464514   -2.832190    0.957546
H     -4.015710    3.177524   -0.677410
