41

C     -2.344205   -2.512509    0.937677
C     -2.750108    1.586825   -1.247485
C     -3.780294    1.167083   -0.251284
C     -1.805801    0.420149   -1.426137
C     -3.768346   -0.333478   -0.334555
C      1.999999   -0.374577    0.003098
C     -0.227210   -1.746798   -0.080488
C      4.632191    0.204418   -0.699675
C      0.699934   -0.658675    0.351645
C     -2.407048   -0.764765   -0.754074
C      2.656498    0.707295    0.547659
C      6.010992    0.630376   -0.973629
C      0.026444    0.150426    1.266524
C      1.964044    1.495894    1.455033
C      0.660241    1.239343    1.826377
C     -1.322599   -0.364447    1.459573
C     -1.583282   -1.322248    0.377831
Cl     2.781781    2.871026    2.154480
Cl    -0.178276    2.268077    2.981810
O      6.679617   -0.063730   -1.798090
O      6.617514    1.723492   -0.398631
O     -2.062973   -0.000567    2.408509
O      3.973029    1.024366    0.217253
H     -1.666284   -3.282952    1.358990
H     -2.954681   -2.994309    0.159714
H     -2.966807   -2.154613    1.805029
H     -2.188281    2.502560   -0.928444
H     -3.261245    1.874002   -2.190588
H     -3.609092    1.563379    0.762064
H     -4.787057    1.578851   -0.557719
H     -1.747091    0.238520   -2.530755
H     -0.776682    0.662528   -1.111434
H     -4.488097   -0.606271   -1.156396
H     -4.120496   -0.816655    0.600597
H      2.544278   -0.984264   -0.702308
H      0.036425   -2.683833    0.479251
H     -0.211669   -1.914413   -1.162726
H      4.043397    0.050292   -1.649237
H      4.699832   -0.826227   -0.244838
H     -2.503657   -1.611368   -1.495855
H      7.485064    2.057798   -0.810184
