75

C     -1.826023   -0.519496   -2.156770
C     -1.762946   -2.578764   -0.752414
C      1.886493   -2.388343    1.278078
C      7.580050   -2.303483   -3.729820
C      7.488353    2.459178   -0.896401
C     -5.738302    1.517263   -3.134561
C     -5.340692    1.378078    4.038801
C     -7.283693    3.909614    0.601167
C     -0.068997   -0.126689    1.346834
C      5.157454   -1.969034   -0.260196
C      5.935009   -2.106378   -1.391562
C      4.303368   -0.659915    1.677101
C     -1.391277    0.410841    0.936114
C      0.849899   -0.545415    0.294854
C      2.893620   -0.221913    1.512830
C      5.887606    0.273444    0.029399
C     -4.409484    0.766178   -0.779762
C     -4.286015    0.726152    1.569783
C     -2.728871   -1.467738    1.379565
C     -2.278182   -1.172841   -0.910572
C      5.115725   -0.778740    0.475423
C     -3.721331    0.378269    0.336025
C      6.696069   -1.031352   -1.808694
C      6.682137    0.160253   -1.110381
C     -5.602895    1.466114   -0.722529
C     -5.471364    1.421577    1.641353
C     -6.135962    1.794951    0.494886
C     -2.426198   -0.392440    0.310341
N     -2.967253   -2.285358    2.168878
N      2.106206   -1.099074    0.689703
O      7.486114   -1.137393   -2.936762
O      7.469449    1.198011   -1.583411
O     -6.279669    1.847320   -1.872488
O     -6.023618    1.761785    2.861935
O     -7.330751    2.495155    0.574410
H     -0.820932   -0.917233   -2.514500
H     -2.485615   -0.709294   -3.020911
H     -1.679954    0.573543   -2.087666
H     -2.500385   -3.374307   -0.901844
H     -0.968937   -2.777462   -1.532291
H     -1.224236   -2.706510    0.229634
H      0.921441   -2.420097    1.792614
H      1.773415   -3.106863    0.409147
H      2.729313   -2.778147    1.868897
H      7.632143   -3.175941   -3.023193
H      6.690454   -2.459567   -4.361943
H      8.532989   -2.345101   -4.293017
H      6.456817    2.867552   -0.986011
H      8.161390    3.167425   -1.397282
H      7.695377    2.332079    0.170622
H     -5.784217    0.436614   -3.370683
H     -4.652830    1.803053   -3.193473
H     -6.277118    2.043202   -3.960710
H     -5.101989    0.303195    4.028720
H     -5.914432    1.674561    4.943971
H     -4.405994    1.978328    4.066411
H     -6.293687    4.238705    0.988848
H     -8.049914    4.275514    1.307048
H     -7.371970    4.344190   -0.415784
H     -0.159584   -0.851690    2.202078
H      0.436296    0.762168    1.880674
H      4.539570   -2.757306    0.127911
H      5.932813   -3.040869   -1.926100
H      4.393802   -1.574954    2.344367
H      4.803325    0.131691    2.319654
H     -1.910323    0.894140    1.849851
H     -1.146693    1.361629    0.353114
H      1.147573    0.424309   -0.261249
H      0.450163   -1.162505   -0.499016
H      2.437712   -0.228346    2.538657
H      2.888341    0.791696    1.117423
H      5.903525    1.237551    0.557407
H     -4.031608    0.529131   -1.738615
H     -3.784681    0.445212    2.486382
H     -3.425389   -1.409114   -1.177123
