52

C     -3.044992    4.491074    4.065518
C     -0.985887   -0.699643   -4.006865
C     -1.756754   -1.993650   -3.876256
C      3.838976   -1.528760    1.799480
C      4.725887   -2.576836    1.977586
C     -0.646636   -0.427583   -2.531824
C     -2.510878   -1.798868   -2.602870
C     -0.398703    2.644365    1.264734
C      0.287679    1.831478    0.170181
C      3.794699   -1.883712   -0.551972
C      2.410918   -0.037351    0.415363
C     -1.853688   -1.015281   -0.516143
C     -2.321596    1.253000    0.417629
C      3.367245   -1.169924    0.563253
C     -1.423842    0.049065    0.431160
C      5.133616   -3.266618    0.863179
C      4.675130   -2.926962   -0.391452
C      1.012246   -0.484094    0.497884
C     -2.643864    2.887555    2.246715
Cl     6.261783   -4.603132    1.076473
Cl     5.233425   -3.855060   -1.786814
N     -1.907939   -0.665063   -1.897854
N     -1.805496    2.258506    1.312855
N     -0.045952    0.439945    0.367839
O      0.762872   -1.690161    0.683699
O     -3.881902    2.614855    2.358995
O     -2.189557    3.871179    3.136902
H     -3.364571    5.505068    3.699786
H     -2.490886    4.639363    5.027425
H     -3.968859    3.916559    4.248229
H     -1.696354    0.071958   -4.367869
H     -0.085021   -0.787237   -4.610521
H     -0.988259   -2.802696   -3.807767
H     -2.387860   -2.212056   -4.744809
H      3.501458   -0.967356    2.664465
H      5.049145   -2.795710    2.985694
H      0.112047   -1.219667   -2.283742
H     -0.260814    0.584862   -2.442950
H     -3.570524   -1.594269   -2.797966
H     -2.357195   -2.738710   -1.993605
H     -0.248199    3.711094    1.112507
H      0.049891    2.340250    2.222802
H     -0.047688    2.240112   -0.795506
H      1.376858    1.958398    0.309502
H      3.432918   -1.614600   -1.533402
H      2.588793    0.662613    1.269109
H      2.659869    0.491376   -0.503825
H     -2.870769   -1.410973   -0.196123
H     -1.196952   -1.897967   -0.422585
H     -3.308338    0.930147    0.805580
H     -2.465995    1.666218   -0.600873
H     -1.549486   -0.395098    1.472775
