31

C      3.480542   -0.900227    1.005151
C     -0.173600    4.039593   -0.572572
C     -2.591213   -2.991527    0.005481
C      1.483899    0.333745    0.379057
C     -0.792930   -0.706609    0.040904
C     -1.816537    1.767297   -0.575870
C      1.983384   -1.050971    0.695491
C      0.049443    0.385329    0.054073
C     -2.651081    0.651298   -0.583527
C     -0.474453    1.626590   -0.257649
C     -2.129492   -0.585515   -0.272984
I     -4.669918    0.955032   -1.076851
N      1.870201   -1.899604   -0.424869
O      0.327863    2.770502   -0.261496
O     -2.978333   -1.674068   -0.288099
H      3.882468   -1.951488    0.995895
H      3.991059   -0.368868    0.177107
H      3.638600   -0.451801    1.990304
H      0.545970    4.834340   -0.361189
H     -1.098961    4.215951    0.026819
H     -0.497774    4.101323   -1.649477
H     -3.254012   -3.689417   -0.552194
H     -1.558660   -3.233928   -0.308941
H     -2.701362   -3.139001    1.104974
H      2.062027    0.762790   -0.457736
H      1.648032    0.981396    1.289309
H     -0.387451   -1.671210    0.283155
H     -2.219546    2.737340   -0.818163
H      1.513369   -1.488299    1.581649
H      1.902668   -1.498339   -1.348142
H      1.615797   -2.861653   -0.290066
