38

C     -1.904750   -3.455004    0.061338
C      4.330153    0.277376    0.432229
C      3.935076    0.327973   -0.890258
C      3.374595   -0.043119    1.366213
C      2.618065    0.059995   -1.224754
C      2.065012   -0.309624    1.034861
C     -1.886102   -0.079266    1.570479
C     -2.470549   -1.249860    0.807108
C     -2.111074    2.127864    0.686787
C     -0.218989    1.718225   -1.316194
C     -0.263977   -1.786624   -0.115265
C      1.656531   -0.263059   -0.279167
C     -1.456098    0.920105    0.549651
C     -0.511012    0.694408   -0.439689
C      0.254794   -0.535223   -0.695213
C     -1.793089    3.123772   -0.205437
C     -0.855622    2.956112   -1.216307
Cl    -2.632625    4.659086   -0.022935
N     -1.595701   -2.024147    0.095347
O     -0.593682    4.001822   -2.068925
H     -2.969186   -3.645230    0.230974
H     -1.235949   -4.015613    0.744923
H     -1.667794   -3.785884   -0.980107
H      5.363761    0.487080    0.699926
H      4.674917    0.581043   -1.659063
H      3.708272   -0.078546    2.414588
H      2.374944    0.115183   -2.287884
H      1.353033   -0.552309    1.785565
H     -2.663632    0.372522    2.232545
H     -1.015744   -0.435783    2.123304
H     -3.297301   -0.813227    0.170809
H     -3.015506   -1.860731    1.564406
H     -2.838302    2.238844    1.480892
H      0.508692    1.588364   -2.102631
H      0.275942   -1.980025    0.842517
H      0.129031   -2.628996   -0.774864
H      0.300045   -0.628673   -1.806883
H      0.073821    3.921169   -2.808886
