21

C     -2.081794    0.991715    0.343648
C     -0.080449   -1.024345    1.148513
C     -1.494719    0.029023   -0.637863
C      0.782664    0.840966   -0.191341
C      2.102465    0.175011   -0.348460
C      0.579708   -1.232714   -1.171149
C     -0.131694   -0.365441   -0.182126
N      1.974525   -0.985507   -0.898457
O      3.310721    0.765867    0.061613
O      0.119226   -1.998019   -2.037594
H     -1.356334    1.609567    0.878038
H     -2.836027    1.647445   -0.164256
H     -2.676469    0.438506    1.121889
H     -0.223792   -0.334361    2.007091
H      0.959758   -1.436967    1.276633
H     -0.756844   -1.885556    1.226766
H     -2.156283   -0.815624   -0.814907
H     -1.377057    0.577135   -1.606516
H      0.706101    1.446121    0.714402
H      0.567753    1.395597   -1.125986
H      4.068539    0.161579    0.400062
