37

C      3.587368    2.432473    0.235752
C      2.410972    2.897043   -0.337811
C      3.681271    1.086629    0.518419
C      1.362666    2.036540   -0.618057
C     -1.680660   -1.942000   -1.340895
C     -0.294181   -2.486974   -1.193275
C     -3.248183   -0.572108   -0.031815
C     -1.245596    1.182077    0.722421
C      2.764964   -1.221021    0.543843
C     -1.964275   -0.769068   -0.467321
C      2.616431    0.217609    0.232769
C      1.458083    0.672355   -0.331026
C     -0.964466    0.117615   -0.083557
C      0.579799   -1.664255   -0.284903
C     -3.557948    0.509538    0.792329
C     -2.549926    1.376541    1.160938
C      0.368573   -0.218676   -0.625938
N      1.951027   -2.065393   -0.321679
O     -4.849773    0.736490    1.250384
O     -2.839940    2.458537    1.980870
H      4.395298    3.132093    0.445284
H      2.364847    3.965528   -0.550542
H      4.601629    0.739685    0.964065
H      0.490940    2.490994   -1.068068
H     -2.402018   -2.736135   -1.061291
H     -1.910872   -1.704332   -2.415034
H      0.202812   -2.455449   -2.205820
H     -0.324176   -3.542725   -0.858724
H     -4.062658   -1.252456   -0.315483
H     -0.446940    1.875998    1.025920
H      2.505065   -1.468952    1.590499
H      3.832408   -1.502925    0.330824
H      0.186901   -1.809070    0.759778
H      0.233066   -0.207010   -1.758095
H      2.092948   -3.040408    0.021551
H     -5.574727    0.087985    0.967943
H     -3.770726    2.643226    2.325741
