52

C     -5.274600    2.974480   -1.234056
C     -3.148701   -2.670114    2.403703
C     -2.706225   -3.917838    1.694936
C      4.817540   -0.591089   -1.123534
C      6.022621   -1.140940   -0.686369
C     -2.790086   -1.552350    1.429223
C     -1.578314   -3.450489    0.812934
C     -0.408050    2.771857   -0.840226
C      0.333592    1.733727   -1.694006
C      4.733352    0.829848    0.819628
C      2.913681    0.921077   -0.895195
C     -0.616545   -1.299063    0.350133
C     -1.744295    0.952740    0.209418
C      4.182304    0.378112   -0.384101
C     -0.807632   -0.038778   -0.429119
C      6.556588   -0.697314    0.488445
C      5.931009    0.282428    1.252766
C      1.716293    0.163980   -0.404960
C     -2.873115    2.842636   -1.020667
Cl     8.077751   -1.364980    1.077971
Cl     6.621085    0.851122    2.763536
N     -1.799641   -2.047207    0.561349
N     -1.693181    2.207138   -0.563229
N      0.443232    0.564656   -0.800250
O      1.964728   -0.797368    0.343944
O     -2.788795    3.895122   -1.665750
O     -4.132339    2.297522   -0.753446
H     -5.527322    2.612342   -2.243206
H     -6.137686    2.867986   -0.522025
H     -5.078592    4.084568   -1.258124
H     -4.236744   -2.682273    2.617746
H     -2.627133   -2.522756    3.371038
H     -3.519318   -4.372840    1.086670
H     -2.357264   -4.656511    2.456927
H      4.421493   -0.954461   -2.043894
H      6.515023   -1.906325   -1.279693
H     -2.521602   -0.695304    2.057482
H     -3.744560   -1.398636    0.842141
H     -0.627696   -3.665267    1.302272
H     -1.623589   -3.984326   -0.158152
H      0.190252    2.935435    0.078067
H     -0.515769    3.694547   -1.450654
H     -0.335493    1.472999   -2.532810
H      1.311552    2.127082   -1.990689
H      4.213535    1.592241    1.380704
H      2.933939    0.899645   -1.996798
H      2.819471    1.957491   -0.551163
H     -0.083168   -1.044314    1.299570
H      0.083587   -1.938985   -0.261122
H     -2.774074    0.607646    0.105412
H     -1.432681    1.236548    1.220848
H     -1.298417   -0.365445   -1.403832
