16

C      0.326977    0.990019    0.543678
C     -1.045176    1.076736   -0.094270
C      0.948906   -0.037645   -0.404867
C     -0.118266   -1.061410   -0.425284
N      2.193427   -0.477374    0.088756
N     -1.342085   -0.357608   -0.236624
O      0.026234   -2.300282   -0.578085
O     -2.592403   -0.870696   -0.188285
H      0.866175    1.932032    0.547484
H      0.202863    0.513795    1.526959
H     -1.780151    1.579952    0.544529
H     -0.957927    1.499381   -1.106115
H      1.076518    0.430562   -1.396150
H      2.255424   -0.736124    1.070526
H      2.783014   -0.970038   -0.577526
H     -2.843530   -1.211299    0.685276
