45

C     -0.990199   -2.874909    0.619911
C     -2.359213   -1.567045   -1.548541
C      3.534306    2.241033   -0.154931
C      4.653608    1.442649    0.393203
C     -1.864049    1.282662    2.157520
C     -2.981134    2.003106    1.780649
C     -0.377824   -0.069328   -1.852626
C      1.091693   -0.185441   -1.531327
C     -0.072022   -0.376951    1.820101
C     -2.909870    0.812327   -0.325389
C      2.786121   -0.256905    0.060244
C     -0.264349   -1.841685   -0.182098
C      3.614715    0.829656   -0.548804
C     -1.262084    0.347537    1.344135
C     -3.478978    1.738254    0.521526
C     -1.783566    0.108062    0.098194
C      0.681805   -1.041059    0.676863
C     -1.214441   -0.877002   -0.849166
N      1.350510   -0.030588   -0.114043
O     -4.613027    2.434409    0.072697
H     -1.625745   -3.450022   -0.096562
H     -0.234504   -3.619554    0.984896
H     -1.552014   -2.480028    1.471277
H     -3.239390   -1.590229   -0.878307
H     -2.112493   -2.581684   -1.901761
H     -2.624308   -0.946900   -2.431196
H      2.697653    2.559837    0.513125
H      3.835595    2.985124   -0.951408
H      4.604313    1.212288    1.462903
H      5.690393    1.576864    0.022972
H     -1.483549    1.502691    3.155268
H     -3.454691    2.745200    2.435850
H     -0.534894   -0.583294   -2.833419
H     -0.733104    0.954910   -1.959123
H      1.566018   -1.092040   -1.950485
H      1.581995    0.678579   -2.028378
H      0.594842    0.342336    2.327790
H     -0.334042   -1.158894    2.589732
H     -3.334993    0.639039   -1.310931
H      2.960857   -0.350552    1.156780
H      3.015358   -1.220476   -0.418952
H      0.324909   -2.359772   -0.951435
H      4.046812    0.586820   -1.568057
H      1.378959   -1.768326    1.143086
H     -4.575978    3.299301   -0.421783
