26

C     -1.021441   -1.218622   -0.943427
C     -2.133457   -0.214626   -1.077174
C     -1.055234    1.303801    0.601050
C      1.432112   -1.202720   -0.754381
C      1.388245    1.108179    0.659682
C      0.212159   -0.585261   -0.464841
C      0.187790    0.589807    0.254048
C     -2.304102    0.621104    0.169225
C      2.630368   -0.664330   -0.336629
C      2.603053    0.511387    0.382440
N     -2.770529   -0.253465    1.254119
O      3.814530   -1.318837   -0.651498
O      3.811465    1.054273    0.803687
H     -0.848414   -1.654437   -1.959223
H     -1.352630   -2.029543   -0.255824
H     -1.968348    0.451252   -1.945026
H     -3.077822   -0.780128   -1.228424
H     -1.057137    1.440129    1.720543
H     -1.021831    2.356690    0.202093
H      1.453451   -2.125479   -1.318712
H      1.405191    2.041752    1.233443
H     -3.102500    1.363415   -0.041023
H     -1.947173   -0.898740    1.450736
H     -2.881401    0.361588    2.090028
H      3.824970   -2.177017   -1.177067
H      3.778684    1.919831    1.332154
