43

C      3.609406   -1.277008    0.179890
C      4.017675    0.030137   -0.446905
C     -2.926383    2.103262   -0.741067
C     -1.847451   -2.488941    0.378757
C     -2.951480    0.579739   -0.808152
C     -1.597014    2.546283   -0.113843
C     -2.809329   -1.416469    0.712580
C      2.183293   -1.629740   -0.095508
C      2.997699    1.097517   -0.340640
C     -0.416472   -2.133424    0.368996
C      0.809312    1.820648   -0.127687
C     -2.361846   -0.021027    0.475323
C     -0.613696    1.460126   -0.370706
C      1.281912   -0.495008    0.231175
C     -0.909258    0.212233    0.473690
N      1.644375    0.690361   -0.493719
N     -0.098928   -0.822348   -0.078441
H      4.271459   -2.067445   -0.213243
H      3.769866   -1.229333    1.277704
H      4.394937   -0.147808   -1.485720
H      4.929936    0.374163    0.124835
H     -3.781200    2.510135   -0.200960
H     -2.873897    2.452716   -1.808652
H     -2.104392   -2.977272   -0.607858
H     -1.979713   -3.326930    1.124589
H     -4.039596    0.298695   -0.773089
H     -2.479211    0.182921   -1.706194
H     -1.779634    2.704847    0.984237
H     -1.232031    3.481218   -0.544404
H     -3.207293   -1.547646    1.763196
H     -3.729616   -1.570249    0.071488
H      2.072227   -1.951837   -1.151056
H      1.930511   -2.501302    0.576159
H      3.091677    1.680763    0.607791
H      3.210852    1.853089   -1.152969
H      0.126876   -2.857269   -0.307976
H      0.046416   -2.298401    1.375183
H      0.987527    2.078704    0.942694
H      1.088009    2.669365   -0.771827
H     -2.806578    0.620398    1.294671
H     -0.708539    1.161955   -1.445054
H      1.321851   -0.279712    1.318199
H     -0.532259    0.429897    1.504514
