44

C     -0.448798    5.170201   -0.243661
C     -0.930103    3.872464    0.586429
C     -2.509249   -2.527587   -0.179470
C     -1.448239   -3.075061    0.740935
C     -2.025033   -1.295356   -0.917334
C      2.059208    1.112330   -1.998482
C      3.209652    0.405507   -1.857179
C     -0.090921   -2.503004    0.529194
C      0.419869   -0.338386    1.757780
C     -1.267478    2.959278    1.151070
C      0.382879    1.197043    1.561017
C     -0.399101    1.220679   -1.269463
C      2.204044   -1.188609   -0.445561
C      0.946474    0.555763   -1.260645
C      3.352236   -0.727653   -1.147715
C     -1.454212   -0.470619    0.156158
C      0.993631   -0.523033   -0.507988
C     -1.296436    0.989087   -0.162286
C     -0.053630   -1.011962    0.466540
N     -0.833665    1.610779    1.065158
O      4.542424   -1.427417   -1.065362
H     -0.198347    5.848630   -0.660311
H     -3.309915   -2.162225    0.485630
H     -2.916316   -3.284457   -0.864271
H     -1.420754   -4.199871    0.538195
H     -1.732338   -3.065072    1.832896
H     -1.129858   -1.577364   -1.535101
H     -2.805551   -0.841729   -1.498788
H      1.991750    1.941052   -2.573793
H      4.205743    0.730026   -2.370066
H      0.553385   -2.773761    1.409658
H      0.375405   -2.997252   -0.330915
H      1.431068   -0.550761    2.037202
H     -0.248969   -0.660543    2.523171
H     -1.162700    3.130706    2.433195
H     -2.479361    2.819566    1.185922
H      0.555620    1.575682    2.539334
H      1.194723    1.425533    0.863007
H     -0.320020    2.272726   -1.560714
H     -0.970341    0.666161   -2.146545
H      2.270176   -2.063690    0.123841
H     -2.117688   -0.536754    1.128545
H     -2.274264    1.432303   -0.279720
H      5.155002   -1.133353   -0.239508
