45

C      4.871076   -0.435047    1.664196
C     -4.826349   -1.909023    0.488675
C     -4.933733   -1.773857   -0.884326
C     -3.917723   -1.125062    1.170075
C     -4.130627   -0.866225   -1.500203
C     -3.106632   -0.206650    0.538113
C      1.816095    1.280739    0.533975
C      1.336563   -1.092901    0.764922
C     -2.626872    2.331248   -1.171114
C     -3.211390   -0.066787   -0.846704
C      1.061831    0.113413   -0.064893
C     -2.368597    0.898447   -1.565218
C      3.289409    0.920841    0.503367
C      2.858677   -1.310756    0.722410
C      3.597233    0.338635   -0.858312
C      3.273524   -1.108002   -0.712439
C     -0.939075    0.536746   -1.430558
N      3.482771   -0.191995    1.399694
O     -2.413069    2.603371    0.148315
O     -0.205226    0.275764   -2.430425
O     -0.280453    0.451315   -0.215600
O      4.554137   -0.640168   -0.987881
Br     0.767383    0.000000    0.000000
H      5.461785    0.328075    1.096346
H      5.145067   -0.293387    2.733062
H      5.190867   -1.470800    1.397514
H     -5.436558   -2.610573    1.024239
H     -5.630468   -2.373117   -1.417429
H     -3.801018   -1.199343    2.250327
H     -4.198820   -0.741648   -2.591942
H     -2.389854    0.416300    1.050081
H      1.606113    2.234376    0.009848
H      1.486836    1.339806    1.605236
H      0.917699   -2.032602    0.337657
H      1.082204   -0.969154    1.831711
H     -1.926287    2.953496   -1.788984
H     -3.644485    2.663062   -1.456911
H      1.495385   -0.070607   -1.079997
H     -2.631499    0.827296   -2.642671
H      3.931386    1.779586    0.754603
H      3.140623   -2.278522    1.137304
H      3.311599    0.903395   -1.770257
H      2.813614   -1.679955   -1.519512
H     -3.105760    3.250267    0.491465
H     -0.767383    0.000000    0.000000
