44

C      3.577529   -1.718734   -3.113879
C      2.486502   -2.105637   -2.681640
C     -0.220511    2.793521   -1.613412
C     -1.504396    2.679874   -0.834778
C      0.785273    1.880592   -0.941348
C      1.033256   -0.195068    2.829152
C      0.034720   -0.073537    3.770634
C     -1.998650    1.267242   -0.710156
C     -1.463926   -1.110442   -0.767335
C      1.212409   -2.582893   -2.164672
C     -0.448619   -2.183144   -0.480871
C      1.826388   -0.226294    0.531391
C     -1.573611    0.277881    1.997120
C      0.699318   -0.074491    1.473837
C     -1.258357    0.161699    3.350653
C      0.303521    0.472771   -1.228901
C     -0.590834    0.160119    1.049276
C      1.294549   -0.554006   -0.837230
C     -0.952900    0.270141   -0.389252
N      0.855009   -1.881269   -0.963477
O     -2.284373    0.288514    4.310610
H      4.512298   -1.373379   -3.476161
H     -0.375197    2.527737   -2.674476
H      0.123683    3.839935   -1.526192
H     -1.345349    3.151571    0.161740
H     -2.270519    3.272802   -1.363929
H      1.816165    2.023180   -1.259028
H      0.633639    2.021532    0.177454
H      2.057565   -0.385472    3.153517
H      0.258952   -0.162937    4.845645
H     -2.532849    1.001108   -1.672851
H     -2.791608    1.250763    0.044282
H     -1.780879   -1.145449   -1.823667
H     -2.366418   -1.308202   -0.142922
H      0.409900   -2.486174   -2.890851
H      1.295357   -3.675739   -1.875665
H     -0.803439   -3.111902   -0.957080
H     -0.406385   -2.357941    0.606933
H      2.464471    0.678806    0.515416
H      2.472885   -1.101651    0.817421
H     -2.627838    0.451991    1.793236
H      0.022262    0.347981   -2.281455
H      2.185915   -0.432195   -1.528525
H     -2.764906   -0.573202    4.577676
