43

C     -2.769602   -0.537056   -1.918104
C     -2.383542   -2.001153   -2.170445
C      2.090994   -0.563226    2.674948
C     -0.825570    2.361348    1.172899
C      1.472632    0.788643    2.614950
C      2.333208   -1.181290    1.310485
C      0.631090    2.677015    1.349942
C     -1.602132    0.274427   -2.404866
C     -1.181205   -2.267056   -1.293994
C     -0.960439    1.853951   -0.253743
C      1.027418   -1.766995   -0.746925
C      1.431160    1.391331    1.232996
C      1.086710   -0.997256    0.542865
C     -0.365123   -0.023471   -1.640747
C      0.992138    0.490414    0.162646
N     -0.063426   -1.431675   -1.577442
N     -0.323016    0.610698   -0.335836
H     -2.954387   -0.456360   -0.843979
H     -3.653431   -0.253173   -2.514817
H     -3.184153   -2.684119   -1.878361
H     -2.099618   -2.065840   -3.230833
H      1.353411   -1.240766    3.184884
H      3.009356   -0.601227    3.298879
H     -1.492957    3.197059    1.385149
H     -1.062451    1.468989    1.823380
H      2.094694    1.467616    3.265249
H      0.449270    0.840864    3.040568
H      3.234002   -0.755875    0.823243
H      2.508182   -2.278502    1.504176
H      0.760123    3.131068    2.348055
H      0.918621    3.402032    0.535397
H     -1.781084    1.359044   -2.414665
H     -1.428126   -0.020167   -3.468436
H     -1.512958   -2.242440   -0.232816
H     -0.877994   -3.320201   -1.487915
H     -2.052140    1.727503   -0.427295
H     -0.611782    2.624980   -0.975941
H      1.976446   -1.691968   -1.284049
H      0.920255   -2.854184   -0.457805
H      2.491138    1.743399    1.043718
H      0.212148   -1.198470    1.175740
H      0.492068    0.440590   -2.215870
H      1.700073    0.581499   -0.715283
