36

C     -4.835138    0.141027    1.148311
C     -4.343032   -0.787734    0.080711
C     -2.813722   -0.814335    0.045062
C     -2.316757    0.566249   -0.238042
C     -0.800666    0.636994   -0.284984
C     -0.225378   -0.238881   -1.343191
C      4.031662    0.810551   -0.169195
C      1.249879   -0.211237   -1.474298
C      3.521570   -0.532933   -0.651006
C      4.096074    0.721941    1.340581
C      2.039397   -0.627802   -0.283914
C      2.766805    0.291551    1.811096
O      2.594155    0.115338    3.039123
O      1.772455    0.101262    0.893582
H     -5.099838    1.136711    0.715952
H     -5.729340   -0.236790    1.661535
H     -4.033682    0.344813    1.889021
H     -4.725653   -1.811274    0.248143
H     -4.672505   -0.451088   -0.918024
H     -2.415475   -1.203366    0.982854
H     -2.566502   -1.499710   -0.795676
H     -2.718962    1.286543    0.501733
H     -2.674138    0.899013   -1.246632
H     -0.493352    1.677371   -0.440322
H     -0.476595    0.344663    0.751811
H     -0.619350   -1.283810   -1.268542
H     -0.652957    0.127060   -2.322108
H      3.220075    1.551595   -0.396568
H      4.987898    1.100502   -0.620177
H      1.569088    0.807253   -1.802251
H      1.545806   -0.885574   -2.322946
H      4.087628   -1.340956   -0.160475
H      3.609091   -0.598282   -1.752350
H      4.431240    1.676997    1.795236
H      4.819476   -0.097330    1.620600
H      1.870741   -1.716329   -0.034650
