52

C      2.973249    1.058478   -0.233233
C     -3.494096    2.838399    0.507553
C     -7.581222    0.048307    0.148096
C     -6.053165   -2.945970    1.047452
C      5.966390   -1.530597    0.284558
C      5.569941    0.176935   -1.305976
C      7.276723   -1.194360    0.307754
C      6.901350    0.495793   -1.262026
C      3.681689   -1.250414   -0.548632
C      1.316376   -0.861488   -0.396110
C     -1.194695   -0.765339   -0.280073
C      0.031713    1.253504   -0.216923
C      2.672197   -0.379869   -0.410531
C     -4.141928    1.500558    0.337349
C     -6.083257    0.169902    0.163575
C      5.073671   -0.841759   -0.534029
C      0.214683   -0.206004   -0.296754
C      7.807555   -0.183747   -0.447356
C     -1.926708    0.488088    0.200143
C     -5.512467    1.413089    0.328671
C     -3.374028    0.368197    0.183988
C     -5.266557   -0.926217    0.015422
N      9.175659    0.149315   -0.403052
O     -6.195935    2.460775    0.469923
O      9.992379   -0.573660    0.433714
O      9.604455    1.077486   -1.110993
O     -5.893968   -2.176464   -0.148156
O     -1.351689    1.432466   -0.602387
O     -3.963129   -0.793655    0.029549
H      4.017799    1.184823    0.200088
H      2.332410    1.483437    0.561827
H      2.860834    1.633567   -1.146442
H     -4.216810    3.536390    0.976596
H     -3.223967    3.220907   -0.519879
H     -2.596631    2.810841    1.140697
H     -7.943110    0.512784   -0.816590
H     -7.861659   -1.006248    0.101441
H     -7.987764    0.596978    1.008991
H     -7.110945   -3.285409    1.141762
H     -5.756160   -2.378261    1.942784
H     -5.348105   -3.817726    0.936495
H      5.576204   -2.347088    0.906275
H      4.889321    0.735712   -1.971455
H      7.917775   -1.777782    0.972689
H      7.350884    1.300667   -1.854541
H      3.425735   -2.286055   -0.673136
H      1.172541   -1.972110   -0.479187
H     -1.308023   -1.536708    0.476588
H     -1.514015   -1.094268   -1.265073
H      0.626653    1.844462   -0.934392
H      0.027064    1.653716    0.821501
H     -1.555215    0.685620    1.236069
