27

C      1.773802    1.621153    0.395812
C      2.843042   -0.388995   -0.488341
C     -3.244025    0.450846    0.123292
C     -0.186249   -0.003040   -1.462769
C     -0.220536   -1.652805    0.441703
C      1.698348    0.109790    0.334911
C     -1.863111    0.031805    0.534817
C     -0.768579    0.600601   -0.277657
C     -1.673974   -1.428723    0.539608
C      0.357061   -0.376434   -0.127789
O     -2.532867   -2.263857    0.609313
H      1.079706    2.002841    1.176901
H      2.800445    1.879302    0.720365
H      1.604362    2.080027   -0.587648
H      3.677420   -0.745095    0.182726
H      2.596046   -1.251829   -1.131798
H      3.321616    0.424604   -1.103470
H     -3.413057    1.477409    0.541698
H     -3.963591   -0.202943    0.674079
H     -3.430891    0.431667   -0.948354
H      0.472544    0.606432   -2.087449
H     -0.716559   -0.799603   -2.059448
H      0.239554   -1.935721    1.409135
H     -0.030456   -2.464866   -0.318116
H      1.829139   -0.263449    1.386653
H     -1.719410    0.375961    1.596731
H     -0.529779    1.684923   -0.074905
