30

C      2.668222    0.243895    0.174036
C      1.070943   -0.179704   -1.661786
C     -1.230632   -1.874148   -0.545914
C      0.417175    0.793701    1.578870
C     -0.856913    1.559961   -0.431905
C      0.509309    1.460900    0.196634
C      0.415173   -0.529654    0.790084
C     -1.768573    0.456855    0.051575
C      1.207940    0.189994   -0.228554
C     -1.015913   -0.784923    0.457834
O     -2.636031    0.907770    1.048225
O     -1.613965   -1.224615    1.665929
H      2.950503   -0.669650    0.770253
H      2.885382    1.112080    0.830632
H      3.350117    0.287113   -0.680673
H      0.049074   -0.223143   -2.040851
H      1.586318    0.630284   -2.259524
H      1.670660   -1.090481   -1.844935
H     -1.873165   -1.508277   -1.398451
H     -0.278589   -2.322232   -0.924528
H     -1.806014   -2.746662   -0.133009
H      1.303393    0.939509    2.194310
H     -0.511644    0.994649    2.113754
H     -1.311182    2.525424   -0.104508
H     -0.782154    1.569286   -1.532051
H      1.109055    2.366676    0.226666
H      0.881085   -1.329329    1.360781
H     -2.434023    0.206856   -0.825548
H     -2.979990    0.126845    1.548389
H     -0.975559   -1.888982    2.074494
