28

C     -2.348617    0.556484    0.653901
C     -1.170020    0.098834   -1.470248
C      1.732988    1.408912   -1.134092
C      0.020749   -0.425060    1.710886
C      0.344919   -1.887558   -0.304168
C     -0.666210   -1.254405    0.617994
C      0.118758    0.688154    0.653829
C      1.488566   -0.971204   -0.437387
C     -1.065312    0.070343    0.005914
C      1.421506    0.465663   -0.035991
O      2.530608   -1.410558   -0.895236
O      2.425661    0.628890    0.949966
H     -2.489118    0.096620    1.674335
H     -2.377662    1.660768    0.734589
H     -3.206146    0.174691    0.055023
H     -1.932791   -0.678247   -1.771793
H     -0.257285   -0.155213   -2.013238
H     -1.604643    1.063018   -1.782005
H      0.890801    1.911381   -1.600130
H      2.452336    2.219440   -0.815096
H      2.296230    0.852826   -1.936779
H     -0.644234   -0.202477    2.546371
H      0.974761   -0.866541    1.998012
H      0.618759   -2.872914    0.123811
H     -0.100304   -2.062715   -1.306500
H     -1.475972   -1.893465    0.968385
H     -0.064593    1.691620    1.065815
H      2.086262    1.092713    1.743830
