33

C     -3.512344   -1.073711    1.240754
C     -3.259918   -0.521890   -1.138784
C     -3.168474    1.262544    0.522133
C      1.829294    0.991755   -1.011282
C      2.797340    0.066554   -1.642284
C      1.527511   -0.646314    0.799697
C      2.953466   -0.992735    0.417741
C      3.937824   -0.153083    1.146561
C     -0.477466    0.370103   -0.337852
C     -2.803854   -0.184588    0.261296
N      0.926003    0.230193   -0.174076
O      3.911118    0.001618    2.391610
O      4.941876    0.501212    0.449241
O     -0.912901    1.158755   -1.213506
O      3.164760   -1.023705   -0.929362
O     -1.405546   -0.313395    0.412744
H     -4.224183   -1.773051    0.768623
H     -2.772898   -1.639690    1.849122
H     -4.101904   -0.460972    1.981692
H     -4.292105   -0.924957   -1.054595
H     -2.643700   -1.330656   -1.583854
H     -3.321438    0.368319   -1.798848
H     -2.411724    1.685900    1.213392
H     -4.188042    1.365703    0.941502
H     -3.119547    1.814437   -0.438169
H      1.243898    1.495548   -1.830773
H      2.297438    1.828491   -0.446988
H      2.375435   -0.283692   -2.622849
H      3.713596    0.655730   -1.939042
H      1.552715   -0.131613    1.781347
H      0.893392   -1.551983    0.879628
H      3.112224   -2.044514    0.800665
H      5.438158    1.253687    0.895057
