27

C      0.964949   -1.747148    0.367291
C     -1.565671    1.338226    0.978204
C     -1.748323   -0.163872    0.927833
C      2.136009   -2.091586    0.997814
C     -0.217540    1.439520   -1.015200
C      2.124181    0.158227   -0.386324
C      0.955093   -0.573970   -0.355318
C     -1.618632    1.707295   -0.485856
C     -0.211643   -0.072065   -1.081902
C     -1.549862   -0.475906   -0.521015
C      3.287345   -1.340697    0.949528
Cl     4.763792   -1.818219    1.771223
N      3.254677   -0.210202    0.244342
N     -2.355904    0.624092   -1.114223
H      0.068008   -2.356197    0.411516
H     -0.543984    1.506883    1.413183
H     -2.301246    1.847352    1.590200
H     -2.828021   -0.341087    1.150647
H     -1.085162   -0.692012    1.628586
H      2.122469   -3.021502    1.563256
H     -0.115536    1.911406   -2.004880
H      0.485610    1.856765   -0.266143
H      2.207070    1.096349   -0.940121
H     -1.992229    2.691624   -0.696672
H     -0.218738   -0.423009   -2.147670
H     -1.900217   -1.449358   -0.841497
H     -2.116494    0.599090   -2.136801
