52

C      0.510274    1.592027   -1.964954
C     -1.009391    5.167161    1.727559
C      1.751633    1.161987   -1.262891
C     -2.246889   -3.046968   -2.294406
C     -3.444958   -2.357047   -2.343327
C      3.510631   -1.077909   -0.152242
C     -1.248479   -2.626830   -1.461264
C     -3.638821   -1.234849   -1.546571
C      2.961482    0.117286    0.553513
C     -0.633166   -1.671009    1.568750
C      2.734487   -2.287112    0.334119
C      0.780978   -2.176869    1.754927
C      0.934021    1.278379    1.111160
C     -0.535840    1.512625    0.888003
C     -1.471043   -1.511434   -0.684231
C     -2.630754   -0.795403   -0.693257
C     -1.198129    0.440486    0.494238
C     -1.115470    2.822767    1.115280
C      0.847177   -0.852205   -0.158953
C      1.564755    0.455037    0.030768
C     -0.576765   -0.846565    0.293295
N     -2.580674    0.297040    0.200342
N      1.384869   -1.961256    0.517558
O     -2.338899    2.991297    0.937893
O     -0.369514    3.910850    1.524759
H      0.836223    1.932967   -2.994642
H     -0.165656    0.717301   -2.196712
H     -0.014562    2.442332   -1.533312
H     -0.448768    5.828182    2.399921
H     -2.050502    4.965033    2.073824
H     -1.098634    5.665764    0.728929
H      2.277843    0.447513   -1.961124
H      2.430124    2.037805   -1.205883
H     -2.111598   -3.920918   -2.922756
H     -4.197389   -2.725774   -3.012664
H      3.428852   -1.066128   -1.244599
H      4.593908   -1.203832    0.077074
H     -0.302290   -3.137327   -1.395254
H     -4.585435   -0.695533   -1.589836
H      3.614969    0.987710    0.353017
H      2.934972   -0.108694    1.636544
H     -0.959251   -1.056561    2.434275
H     -1.272830   -2.578751    1.458235
H      3.162015   -2.724026    1.253159
H      2.808815   -3.091293   -0.455172
H      1.219520   -1.659614    2.625277
H      0.803072   -3.276541    1.992719
H      1.471845    2.193358    1.314275
H      0.977426    0.659908    2.051183
H      0.842639   -1.079521   -1.243995
H     -3.023984    1.154470   -0.200519
H     -3.112841   -0.009318    1.067971
