39

C     -3.364906   -1.143115    0.704503
C      2.736399   -1.110844   -1.582911
C     -1.289637    1.969552   -1.362476
C     -1.411417    1.475075    1.013329
C      2.808773    0.602395    0.251878
C      1.572168    1.483805    0.512651
C     -1.034264   -1.512974    1.399467
C      0.363909   -1.009403    1.328362
C     -0.092410   -1.193678   -1.048563
C     -1.898911   -1.033580    0.515757
C      2.265944   -0.747786   -0.217562
C     -1.350222   -0.371442   -0.693249
C      0.607709    0.852224   -0.351350
C     -0.814202    1.004288   -0.264332
C      0.827472   -0.635704   -0.019069
H     -3.896669   -0.209598    0.398415
H     -3.755707   -1.934479    0.011657
H     -3.602289   -1.408440    1.774100
H      2.210479   -0.625129   -2.402610
H      2.645679   -2.224421   -1.683360
H      3.843142   -0.919627   -1.620808
H     -0.863829    2.969008   -1.238631
H     -2.400258    1.945984   -1.299179
H     -1.036758    1.504590   -2.352568
H     -2.086294    2.372837    0.882275
H     -2.018718    0.738235    1.553608
H     -0.574885    1.877878    1.657081
H      3.429343    0.519577    1.146101
H      3.346785    1.104303   -0.588962
H      1.792936    2.541040    0.214127
H      1.422440    1.481161    1.584825
H     -1.347946   -2.254240    2.153026
H      1.006125   -1.867798    1.687510
H      0.462664   -0.237786    2.109550
H      0.207479   -0.865045   -2.046894
H     -0.294429   -2.258127   -0.949165
H      2.685268   -1.506370    0.494566
H     -2.049331   -0.317420   -1.520968
H      0.948372    0.945056   -1.417466
