40

C     -2.928774    1.887474    1.361165
C      5.729164   -1.078191   -0.194355
C      5.567358   -0.110436    0.771914
C      4.638932   -1.527861   -0.870491
C      4.298084    0.400198    1.051009
C      3.374932   -1.015543   -0.588635
C     -3.032142    0.467220   -1.981921
C     -3.124667   -0.767405   -1.113119
C     -1.027245    1.336012   -0.905190
C      3.184973   -0.046716    0.373263
C     -2.499917    1.501742   -0.979651
C     -2.895867   -0.286201    0.320664
C     -0.539787    0.591983    0.306219
C     -1.487733   -0.483114    0.758874
C     -0.993141   -1.844571    0.368720
C      1.858306    0.469922    0.647201
N     -3.209650    1.107755    0.210181
O     -0.022117   -2.030085   -0.376551
O     -1.653653   -2.960576    0.865306
O      1.727693    1.364902    1.543406
O      0.722671    0.045371   -0.010891
H     -3.914607    2.268115    1.759893
H     -2.307056    2.777205    1.160260
H     -2.528131    1.248995    2.182819
H      6.714062   -1.475882   -0.412416
H      6.441424    0.240802    1.304429
H      4.791468   -2.295565   -1.632314
H      4.151578    1.159017    1.804823
H      2.539960   -1.402132   -1.150130
H     -4.055728    0.840786   -2.252998
H     -2.373225    0.352240   -2.844402
H     -4.170653   -1.146827   -1.143356
H     -2.386790   -1.536740   -1.402357
H     -0.566728    2.363684   -0.897581
H     -0.646482    0.857452   -1.831161
H     -2.795971    2.521901   -1.250265
H     -3.573852   -0.813495    1.030279
H     -0.384954    1.341011    1.107131
H     -1.476572   -0.479614    1.882318
H     -1.145166   -3.842835    1.027911
