50

C      5.552258   -1.156242    0.373344
C      4.383040    0.849025    1.371379
C     -6.004712    2.239199   -0.480038
C     -4.666183   -2.671061    1.685309
C     -0.937546    1.846294   -1.338377
C      0.220558    1.098188   -1.878295
C      3.705730    0.014397   -0.867889
C     -3.304528    1.394550   -0.621358
C     -2.585587   -1.017702    0.429417
C      0.619661   -0.142104    0.896823
C      1.626776   -0.827829   -1.782587
C      4.795808    0.120559    0.118570
C     -1.979798    1.000202   -0.700864
C      2.595931   -0.933254   -0.610081
C     -1.636791   -0.220578   -0.164773
C     -0.237961   -0.641744   -0.247116
C      1.935434   -0.842835    0.688862
C     -4.248226    0.586244   -0.022683
C     -3.919915   -0.638657    0.518546
N      0.382214   -0.242348   -1.456528
O      2.439880   -1.344910    1.672448
O     -5.569685    0.998417    0.047222
O     -4.898005   -1.422887    1.112421
H      6.006811   -1.072697    1.384803
H      4.923040   -2.061506    0.277385
H      6.403001   -1.296359   -0.327513
H      3.334934    1.210795    1.261402
H      4.560718    0.269549    2.298172
H      4.971236    1.800967    1.538713
H     -5.558920    3.069554    0.097126
H     -5.538228    2.303091   -1.506906
H     -7.102750    2.299166   -0.547663
H     -4.704339   -3.434586    0.855064
H     -3.681583   -2.742802    2.179904
H     -5.498030   -2.888700    2.395519
H     -1.477316    2.434878   -2.137840
H     -0.660962    2.627668   -0.573157
H      1.134877    1.735556   -1.731472
H      0.106807    1.076130   -3.004039
H      4.169698   -0.296675   -1.850457
H      3.322434    1.038342   -1.064454
H     -3.552585    2.365993   -1.052957
H     -2.331777   -1.974705    0.852858
H      0.136303   -0.428040    1.825993
H      0.822591    0.926903    0.856004
H      1.416437   -1.834419   -2.243657
H      2.070991   -0.235917   -2.628469
H      5.568345    0.797894   -0.370013
H      3.043535   -1.970216   -0.706847
H     -0.153624   -1.764791   -0.197671
