24

C     -0.807337    2.473139    0.591945
C      2.877284   -0.364564   -0.273337
C     -2.864118   -0.539815    0.402424
C      0.484331    0.114422   -0.831700
C     -1.420680    1.139017    0.377695
C      1.455170   -0.356058    0.228537
C     -1.708334   -0.959982   -0.259331
Cl     3.059698   -1.437725   -1.663692
N     -2.656349    0.729657    0.772892
N     -0.864595    0.087123   -0.250089
N     -1.487163   -2.245443   -0.821009
O      1.376053    0.494973    1.327624
O     -0.346203   -2.636209   -1.462240
O     -2.395761   -3.110192   -0.735540
H     -0.465434    2.491665    1.668364
H     -0.018386    2.726957   -0.107061
H     -1.602535    3.281650    0.583023
H      3.213264    0.669436   -0.492124
H      3.522409   -0.728165    0.552282
H     -3.716336   -1.184697    0.542977
H      0.752423    1.159970   -1.094307
H      0.557659   -0.546645   -1.710052
H      1.168034   -1.375031    0.563857
H      1.886908    0.116517    2.088862
