26

C      2.361891    1.813036   -0.472388
C      1.075807    1.299929   -0.346896
C     -3.386465    0.461056    0.063252
C     -0.603350   -1.955716    0.110410
C      3.436218    1.003796   -0.257025
C     -0.477137   -0.449389    0.096860
C     -2.519450   -0.334448   -0.843904
C      1.965754   -0.742197    0.186326
N      4.663223    1.420239   -0.357837
N      3.225025   -0.279852    0.073819
N      0.874974    0.008204   -0.013907
O     -3.485865    1.791017   -0.250730
O      1.801052   -2.063272    0.527098
O     -1.215852    0.056396   -0.921241
S     -2.418319   -2.053973   -0.197887
H      2.548363    2.843779   -0.737952
H      0.259561    1.975087   -0.526118
H     -3.033511    0.335404    1.109491
H     -4.407616    0.026931    0.034352
H     -0.131526   -2.453182   -0.730153
H     -0.441809   -2.394071    1.094863
H     -0.891373   -0.077574    1.058768
H     -2.933508   -0.430909   -1.868096
H      5.461264    0.801253   -0.193238
H     -4.105382    2.212657    0.396930
H      2.378029   -2.814201    0.124674
