27

C      2.773237   -1.161714   -0.166324
C      1.282382   -1.223223   -0.229719
C     -3.543258   -0.610150   -0.108400
C     -2.829582   -0.450341   -1.275900
C     -2.909782   -0.540528    1.106532
C     -1.466186   -0.217430   -1.250172
C     -1.569183   -0.311099    1.120099
C     -0.854144   -0.151474   -0.033299
C      1.069020    1.178622   -0.802814
C      1.417979    1.742417    1.289892
C      0.613820    0.096542    0.075546
N      1.531193    2.121855   -0.072485
N      0.889586    0.573870    1.392622
O      1.028408    1.221638   -2.188060
O      1.846163    2.580037    2.341914
H      3.187155   -0.211829   -0.546201
H      3.157205   -1.402208    0.845168
H      3.167733   -1.968976   -0.839565
H      0.886027   -1.978504    0.472621
H      0.944376   -1.524359   -1.245652
H     -4.604604   -0.790687   -0.152537
H     -3.317865   -0.502508   -2.258982
H     -3.451018   -0.662825    2.025563
H     -0.884202   -0.090515   -2.140125
H     -1.076786   -0.257616    2.084316
H      1.295817    2.063828   -2.698460
H      1.416510    2.477179    3.254420
