55

C      2.662553    3.651055    0.282505
C      4.944635   -2.515905   -2.142463
C      4.719942   -1.937518    2.454798
C      2.636059    2.155894    0.062923
C     -6.762396   -1.424969    0.246812
C     -6.362344   -2.355161   -0.712004
C     -5.854242   -0.516079    0.725066
C     -5.056300   -2.331175   -1.152006
C     -3.254138    1.388813    1.481151
C     -1.987135    2.152390    1.249342
C      0.065191   -0.586441   -0.121535
C      0.393533    1.875807    1.104798
C      3.265481   -0.949306   -1.337040
C      1.240217    1.619629   -0.091906
C     -4.557813   -0.515478    0.267904
C     -3.420209    0.256885    0.545194
C      1.306537    0.211554   -0.577016
C      2.530781   -0.523875   -0.295190
C     -4.126977   -1.432404   -0.690125
C     -1.056952    0.428772   -0.138481
C     -2.376589   -0.181974   -0.208980
C      3.020256   -0.863025    1.021275
N     -2.836261   -1.216541   -0.956046
N     -0.891894    1.226614    1.056283
O      2.470685   -0.566658    2.110103
O      4.443427   -1.655988   -1.137445
O      4.217150   -1.591634    1.178743
H      2.083048    4.210409   -0.450726
H      2.384700    3.893604    1.332721
H      3.729404    3.970063    0.173153
H      5.887297   -2.983144   -1.791145
H      4.186750   -3.295564   -2.437788
H      5.160802   -1.869811   -3.023900
H      5.831359   -2.000570    2.351613
H      4.453469   -1.200582    3.231579
H      4.347894   -2.959755    2.674503
H      3.213197    1.721904    0.898230
H      3.231444    1.938620   -0.861833
H     -7.802982   -1.455180    0.587625
H     -7.088304   -3.061176   -1.076257
H     -6.165753    0.195539    1.460543
H     -4.729967   -3.056102   -1.904380
H     -4.106641    2.097159    1.358152
H     -3.247455    0.984881    2.513791
H     -2.026552    2.800257    0.352993
H     -1.763385    2.755217    2.144199
H     -0.087984   -1.420667   -0.803412
H      0.193398   -0.902078    0.942978
H      0.967812    1.685823    2.023963
H      0.174367    2.982770    1.133844
H      2.969844   -0.759242   -2.353156
H      0.790880    2.292119   -0.909218
H      1.168526    0.246423   -1.698769
H     -0.882099    1.141748   -0.999156
H     -2.246264   -1.755945   -1.638429
