49

C      7.801797   -0.408898   -2.360124
C     -2.136243    0.688265    3.675958
C      3.142047   -1.142804   -0.921121
C      0.658669   -0.950680   -0.764666
C     -5.727201   -0.813853   -0.583766
C      6.576714   -0.684420   -1.554404
C      2.063185   -0.224605   -0.710723
C     -5.106799   -1.105248    0.658494
C     -3.820051   -0.392205    0.999373
C     -1.392256    2.092811   -0.299626
C      1.973569    1.056778   -0.439114
C     -3.197822    0.560753    0.128481
C     -0.151743    2.518500    0.458219
C     -0.374998    1.652282   -1.300927
C      3.164228    1.860398   -0.278787
C     -6.785180   -2.601813    1.173499
N     -7.497588   -3.447544    1.748989
N     -5.673766   -1.970421    1.442487
N     -2.095633    1.151756    0.453049
N      6.573381   -0.986270   -0.247250
N      5.298073   -0.687764   -1.945561
N     -3.293015   -0.679243    2.124216
N      5.331643   -1.159773    0.110777
N      4.508859   -0.980737   -0.925596
N      0.686025    1.711043   -0.314393
O     -3.696654    0.923880   -1.091779
O     -0.024251    3.313165    1.416412
O      2.977053    3.120813    0.005924
O      4.477900    1.567381   -0.365354
O     -2.111449   -0.037165    2.458832
S     -0.421564   -0.039895   -1.889357
S     -7.195396   -1.908353   -0.497340
H      8.632268   -1.080524   -2.040131
H      8.140452    0.628691   -2.266813
H      7.634175   -0.607875   -3.442926
H     -2.560335    1.710321    3.463466
H     -1.124540    0.803524    4.113681
H     -2.847319    0.220884    4.388013
H      2.862351   -1.753785   -1.910270
H      2.885393   -2.065082   -0.199905
H      0.804548   -1.952016   -1.186589
H      0.319975   -0.970009    0.271754
H     -5.501116   -0.179393   -1.387288
H     -1.897430    3.011423   -0.656069
H     -0.197747    2.368794   -2.118065
H     -8.362918   -3.782852    1.274580
H     -5.226527   -2.236924    2.433766
H     -3.351207    1.727124   -1.641081
H      5.258440    2.161569   -0.229485
