55

C      0.212703   -1.577184   -3.092154
C     -1.760706   -0.520274    2.483796
C     -1.053038    1.653874    1.944333
C     -3.370562   -1.379435   -0.997396
C     -4.220245    0.324590    0.379219
C     -1.561708   -0.300942    3.832410
C     -0.831746    1.935087    3.298723
C     -4.648790   -1.807379   -1.260530
C     -5.490448   -0.111595    0.109606
C      1.341957    1.155436   -1.553745
C      0.434677    0.893739   -0.643954
C      3.346496    1.122272   -0.031826
C      4.189251   -0.804514    1.239354
C     -1.513269    0.439492    1.523838
C     -3.104155   -0.319819   -0.186197
C     -1.088604    0.952954    4.231872
C     -5.744053   -1.183921   -0.713358
C      2.696470    1.654544   -1.266058
C      3.536627   -0.356027   -0.024341
C     -0.922700    0.395362   -0.875718
C      5.529336   -0.234352    1.403598
C     -1.764982    0.201260    0.115850
C     -1.383963    0.148151   -2.230043
F     -0.882538    1.195825    5.562178
F     -7.014269   -1.594297   -0.963780
N     -2.481431    0.709255   -2.831383
N     -2.634273    0.241297   -4.041283
N     -1.666733   -0.611140   -4.248542
N     -0.893660   -0.679359   -3.146943
O      3.508225    1.289414   -2.357812
O      2.336497   -1.057589   -0.262417
O      6.101675    0.427309    0.518185
O      6.267313   -0.400450    2.590747
H      1.076471   -1.137286   -3.597362
H     -0.099922   -2.547293   -3.590656
H      0.501614   -1.881501   -2.079540
H     -2.126717   -1.480454    2.146941
H     -0.868927    2.435481    1.228865
H     -2.566810   -1.926220   -1.447733
H     -4.020667    1.167797    1.025686
H     -1.748660   -1.038659    4.595802
H     -0.462901    2.910589    3.613509
H     -4.861413   -2.658598   -1.912834
H     -6.358217    0.396834    0.554057
H      1.019171    1.006693   -2.596869
H      0.750039    1.057140    0.399202
H      4.325588    1.623295    0.071360
H      2.755604    1.463974    0.877241
H      3.518598   -0.458004    2.075079
H      4.220569   -1.925645    1.282954
H      2.749938    2.766804   -1.226374
H      4.207848   -0.689353   -0.859530
H      3.452531    0.307115   -2.531427
H      2.122703   -1.517912    0.590614
H      6.944210    0.323617    2.874781
