43

C      5.127884   -0.906399   -0.761711
C     -3.571844    1.110000    1.317562
C      2.757191   -0.104795   -0.599013
C      6.486557   -0.680886   -0.671486
C     -4.860412    1.532670    1.523086
C      2.160939   -1.239121   -0.915957
C     -1.958219   -0.596498    0.621852
C      4.707465    1.314477   -0.176018
C     -4.450315   -0.951989    0.524120
C      4.198080    0.078625   -0.518251
C     -3.359196   -0.174027    0.800997
C     -1.412516   -0.101457   -0.689993
C      6.970033    0.559508   -0.328605
C     -5.939075    0.730024    1.235474
C      6.058584    1.568673   -0.078275
C     -5.742917   -0.518081    0.733958
C      0.661533   -1.291590   -0.962926
C     -2.150045   -0.589183   -1.851597
N     -0.010669   -0.266026   -0.703192
O      8.340179    0.775366   -0.240716
O     -7.243978    1.161963    1.444877
O      6.505709    2.827035    0.268622
O     -6.822391   -1.352130    0.433901
O      0.049853   -2.485129   -1.295801
O     -1.502754   -1.127544   -2.812868
O     -3.526204   -0.513449   -2.004724
H      4.778349   -1.884341   -1.031347
H     -2.728329    1.755964    1.549752
H      2.103074    0.729819   -0.389805
H      7.220812   -1.460680   -0.864263
H     -5.007645    2.534612    1.925617
H      2.764488   -2.093153   -1.131760
H     -1.386092   -0.127288    1.483867
H     -1.839900   -1.681333    0.787794
H      3.989486    2.121125    0.024307
H     -4.291194   -1.951107    0.135522
H     -1.620296    1.048614   -0.713840
H      8.674046    1.684680    0.010192
H     -7.393973    2.107214    1.824737
H      5.828080    3.550865    0.447652
H     -7.755451   -1.005642    0.598592
H     -0.764904   -2.874311   -0.862281
H     -4.044025   -1.215073   -2.507189
