72

C     -6.290534    1.227318    0.750764
C     -2.284818   -4.676659   -0.204266
C     -1.022337    3.968890    1.178308
C      3.930812    1.711975   -1.993093
C      6.070875   -0.398272    3.336141
C      1.662210   -1.318013   -2.531575
C     -4.227107   -1.838746   -0.890668
C     -5.152971   -0.771755   -0.366692
C     -3.419117   -2.617013    0.019921
C     -3.987587    1.014862    1.092094
C      0.183725    2.483766   -0.508925
C      0.709010    1.376778   -1.411432
C     -2.967608    1.680138    0.283893
C     -1.025971   -2.580845   -0.944478
C     -0.525542   -1.204629   -1.285386
C      5.136697    0.856377   -0.091597
C     -5.130668    0.288537    0.365448
C     -2.064103   -3.164430   -0.444424
C     -0.700143    2.658756    0.412068
C      3.773300    1.234732   -0.552116
C      6.261716    0.030315    1.927164
C      1.337925    0.285180   -0.693442
C     -1.690552    1.707708    1.102784
C      2.754069    0.152888   -0.473786
C      2.958686   -1.131006   -0.113299
C      1.659858   -1.852109   -0.181234
C      0.963394   -1.104118   -1.233739
O      7.352177    0.056003    1.338721
O     -1.995706    2.169771    2.421865
O      4.149248   -1.725160    0.261881
O      1.272972   -2.820834    0.473921
O      5.124578    0.428243    1.232699
H     -6.077369    2.255903    0.323835
H     -7.294440    1.026741    0.611455
H     -6.215571    1.433441    1.883514
H     -2.860339   -5.116421   -1.046930
H     -3.044047   -4.778628    0.664885
H     -1.514080   -5.307915    0.113345
H     -2.131349    3.904547    1.505128
H     -0.502266    3.957812    2.157413
H     -0.994977    4.906583    0.714640
H      3.566496    2.733258   -2.157674
H      3.558075    0.974197   -2.730267
H      5.041700    1.750502   -2.205761
H      5.102285   -0.964803    3.451427
H      6.915952   -1.000510    3.702180
H      5.965863    0.491933    3.990645
H      1.499051   -0.502277   -3.264829
H      2.760064   -1.313309   -2.318240
H      1.461647   -2.319179   -2.964887
H     -3.572562   -1.399125   -1.708411
H     -4.806956   -2.602559   -1.524254
H     -6.143441   -1.168301   -0.881627
H     -3.310909   -2.044708    0.983641
H     -4.062943   -3.484163    0.377366
H     -4.412722    1.851150    1.743230
H     -3.504475    0.378315    1.859816
H      0.926272    3.322154   -0.878001
H     -0.060546    0.950851   -2.105142
H      1.424168    1.796346   -2.188049
H     -2.780053    1.109876   -0.635197
H     -3.291963    2.709821    0.007566
H     -0.087836   -3.157691   -1.366119
H     -0.765750   -1.033326   -2.392317
H     -0.919891   -0.340560   -0.795876
H      5.667794    0.167333   -0.779351
H      5.745252    1.805309   -0.115977
H      3.405772    2.086623    0.035099
H      0.865287    0.255450    0.359689
H     -1.416542    0.698967    1.299872
H     -1.192717    2.215382    2.962247
H      4.241581   -2.377666    1.034395
