124

C     -0.134851    5.819262    1.176391
C     -3.863447    5.419952   -1.764394
C     -4.071861    2.715998   -2.562171
C      4.200130   -0.149593   -1.941532
C     -3.025689   -4.132900    2.452945
C      1.356434    1.107766    1.393416
C      9.147892    2.403688    0.300667
C     -6.598158    0.004544   -2.491423
C     -7.740600   -2.591986   -0.196380
C     -0.755159    4.430612    1.328005
C     -0.898222   -5.078167   -1.015613
C      0.316978   -5.443195   -0.224100
C     -0.945150   -3.694587   -1.546941
C      6.811406   -0.988013   -0.981106
C      8.170000   -1.676194   -0.647440
C      0.763445   -4.398088    0.761291
C     -3.712890    3.435005   -0.189864
C     -1.730629    4.649407   -0.849131
C     -3.924134    1.008337   -0.854014
C      4.643951   -0.738125    0.341057
C     -4.992348   -3.194931    1.350308
C      6.739750    0.256141    1.214728
C      1.719875    3.312947   -0.049947
C     -3.020497    4.494166   -0.916574
C     -4.386166    2.426323   -1.108742
C      3.747614   -0.469021   -0.593503
C     -3.481195   -3.238162    1.332905
C      1.659593    0.879747   -0.099928
C      6.091185   -0.780692    0.282223
C     -0.863252    3.764240   -0.028327
C      8.782303   -0.955665    0.496285
C     -0.210762   -2.666105   -0.693950
C      2.341238    2.048719   -0.698239
C      0.453557    3.674230   -0.705284
C      8.183296    0.364975    0.828098
C     -5.132142    0.052595   -0.700488
C     -5.498395   -2.187408    0.284900
C      2.291096   -0.464430   -0.269200
C     -4.744868   -0.926451    0.356626
C     -1.633209   -1.667044    1.961774
C     -0.532049   -2.570503    1.834464
C      1.068599   -2.352128   -1.386671
C     -3.019128   -1.808119    1.513942
Cl    10.531200   -0.725745    0.181885
N     -0.026090   -3.170229    0.644694
O      3.673984    2.093426   -0.341292
O      0.505631    3.915868   -1.899112
O     -1.378880   -0.553537    2.563005
O      0.090706   -2.890717    2.925913
O      1.593656   -3.344181   -2.010370
O     -3.840303   -1.300736    2.556110
O      8.383818    1.347092   -0.134991
O     -5.446096   -0.494577   -1.930784
O     -6.831548   -1.994046    0.635875
O      1.579204   -1.105506   -1.325950
O     -3.345741   -1.125013    0.368332
H      0.577684    6.038494    2.009228
H      0.427013    5.827999    0.224203
H     -0.903263    6.604981    1.153673
H     -4.930137    5.296930   -1.587270
H     -3.597778    6.448379   -1.376459
H     -3.537469    5.419875   -2.810004
H     -4.148640    1.760661   -3.162611
H     -4.805943    3.395509   -3.034621
H     -3.056384    3.079876   -2.720371
H      3.360478    0.345405   -2.522379
H      4.279528   -1.122677   -2.496358
H      5.027111    0.529664   -2.068971
H     -3.010994   -3.577194    3.408229
H     -2.012437   -4.576737    2.232227
H     -3.687811   -5.010110    2.595661
H      2.219700    1.459808    1.953380
H      0.413839    1.655360    1.547703
H      1.143989    0.062195    1.773178
H      8.702963    2.936749    1.170179
H      9.202888    3.139260   -0.527478
H     10.179291    2.062067    0.501789
H     -6.842158   -0.480746   -3.468146
H     -7.496314   -0.055620   -1.859363
H     -6.477520    1.118986   -2.687105
H     -7.717391   -2.301534   -1.246525
H     -8.749340   -2.390564    0.232603
H     -7.647754   -3.717202   -0.168473
H     -1.761547    4.595572    1.752470
H     -0.154833    3.905356    2.060639
H     -1.801979   -5.347820   -0.417846
H     -0.895195   -5.775070   -1.910091
H      0.039324   -6.405789    0.313373
H      1.172879   -5.792313   -0.878813
H     -2.014671   -3.408668   -1.712488
H     -0.501117   -3.688510   -2.589152
H      7.178528   -0.088849   -1.516441
H      6.288292   -1.726328   -1.589648
H      8.811461   -1.654422   -1.555082
H      8.001929   -2.739152   -0.392389
H      0.665984   -4.828288    1.794616
H      1.850319   -4.136764    0.644147
H     -4.555263    3.942782    0.374998
H     -3.160054    2.887632    0.561779
H     -1.299356    5.479681   -1.437434
H     -3.313894    0.606920   -1.668455
H     -3.396653    1.019682    0.113386
H      4.159018   -0.964123    1.330384
H     -5.327837   -2.799952    2.322119
H     -5.366961   -4.202632    1.102612
H      6.671800   -0.063729    2.272638
H      6.201442    1.220784    1.161906
H      2.456901    4.120794   -0.299269
H      1.701665    3.135231    1.010116
H     -5.488031    2.446270   -0.993810
H     -3.192141   -3.598504    0.341412
H      0.618693    0.858945   -0.556231
H      6.353447   -1.746848    0.879037
H     -1.226240    2.728147    0.047135
H      8.726622   -1.589070    1.408136
H     -0.873491   -1.775705   -0.633890
H      2.149890    2.098493   -1.793421
H      8.741153    0.737287    1.740760
H     -5.972236    0.739480   -0.419273
H     -5.481577   -2.709465   -0.692695
H      2.141569   -1.013083    0.692435
H     -5.002398   -0.423993    1.341854
H      4.243557    2.579839   -0.962437
H     -3.365235   -1.322871    3.423779
