124

C     -0.355772    5.662541    2.598725
C     -3.446952    6.510781   -1.247928
C     -3.932918    4.120694    1.202097
C      3.834497   -1.075319    1.511596
C     -4.206331   -4.423956   -0.405545
C      0.600131    0.628551    0.803208
C      9.622236    0.074697   -2.908436
C     -6.590398    1.410337    1.591935
C     -7.365730   -0.096881   -2.219800
C     -0.317922    4.354091    1.800466
C      1.956725   -5.031636    0.908323
C      0.877455   -5.973550    0.536170
C      1.451171   -4.025189    1.877118
C      6.536592   -1.809873    0.889418
C      8.071179   -1.970277    0.779796
C     -0.498551   -5.444280    0.400317
C     -3.354140    4.166950   -1.263448
C     -1.365349    5.427576   -0.222938
C     -3.678302    2.033161   -0.055974
C      4.633915   -1.225321   -0.712292
C     -5.044808   -2.345548   -1.509512
C      6.769334   -0.357270   -1.049039
C      1.614470    3.115728   -0.719564
C     -2.511885    5.361666   -0.814621
C     -4.116274    3.510069   -0.151166
C      3.596286   -1.004131    0.047278
C     -4.520195   -2.972763   -0.244091
C      1.894934    0.712545    0.007008
C      6.005662   -1.531841   -0.421112
C     -0.238311    4.633791    0.322733
C      8.755076   -0.760360    0.251849
C      0.340525   -3.245823    1.202910
C      1.688787    1.687533   -1.142439
C      0.194083    3.488103   -0.474775
C      8.223746   -0.582771   -1.174168
C     -4.860310    1.114560    0.094893
C     -5.587622   -0.970272   -1.061308
C      2.252135   -0.682828   -0.536207
C     -4.430665   -0.254097   -0.449551
C     -2.895758   -2.840308    1.527698
C     -2.050487   -4.013243    1.661040
C      0.763471   -2.726110   -0.146869
C     -3.319201   -2.164909    0.287116
Cl     8.321058    0.622577    1.276627
N     -0.754557   -4.193884    1.107668
O      0.604531    1.282405   -1.924984
O     -0.636960    2.761223   -0.992508
O     -3.321523   -2.340916    2.627413
O     -2.490016   -5.027781    2.353076
O      0.615044   -3.570205   -1.077379
O     -2.332815   -2.081413   -0.684326
O      8.858102    0.446736   -1.828738
O     -5.261334    1.033762    1.415971
O     -6.004761   -0.328643   -2.201959
O      1.226051   -1.504295   -0.257717
O     -3.840423   -0.905112    0.601793
H     -0.010146    5.499229    3.622209
H      0.171010    6.481578    2.058055
H     -1.428364    5.989765    2.674087
H     -4.272719    6.132421   -1.909452
H     -2.991117    7.253188   -1.910245
H     -3.999775    6.953559   -0.405281
H     -3.208478    4.950388    1.251666
H     -4.909246    4.461017    1.647682
H     -3.574333    3.357049    1.959951
H      4.245694   -0.138957    1.922757
H      4.244897   -2.010858    1.875147
H      2.792424   -1.082498    1.965925
H     -4.726870   -4.756924   -1.351224
H     -3.103772   -4.524410   -0.493383
H     -4.632378   -4.982076    0.435291
H      0.669338   -0.106149    1.640414
H      0.323806    1.575755    1.258541
H     -0.240087    0.301194    0.141297
H     10.062996    1.034056   -3.319533
H     10.513943   -0.501693   -2.584529
H      9.100467   -0.395581   -3.740674
H     -7.304205    0.779239    1.018541
H     -6.781482    2.458862    1.216431
H     -6.854389    1.438458    2.669090
H     -7.707966    0.523431   -1.389160
H     -7.859896   -1.099341   -2.132631
H     -7.682847    0.377990   -3.178085
H      0.522770    3.738773    2.158134
H     -1.240663    3.817699    2.016580
H      2.389981   -4.514227    0.022056
H      2.757314   -5.631270    1.429059
H      0.894943   -6.830384    1.276536
H      1.167294   -6.465518   -0.432701
H      0.988777   -4.579019    2.730214
H      2.218557   -3.385023    2.325184
H      6.416349   -1.037413    1.658304
H      6.331864   -2.861481    1.281290
H      8.443365   -2.267408    1.790130
H      8.261734   -2.828532    0.100235
H     -0.774040   -5.380469   -0.686846
H     -1.195283   -6.260784    0.765583
H     -2.908920    3.409238   -1.876290
H     -4.191655    4.542522   -1.973145
H     -0.905690    6.498214    0.109291
H     -3.182336    1.740311   -1.026931
H     -2.980197    1.852378    0.761887
H      4.413477   -1.163098   -1.807492
H     -5.869796   -2.982012   -1.879511
H     -4.228950   -2.182648   -2.210597
H      6.604100    0.501448   -0.354489
H      6.305927   -0.061173   -2.009141
H      2.268734    3.366176    0.129912
H      1.965336    3.750067   -1.573253
H     -5.213723    3.413993   -0.404534
H     -5.316975   -2.829461    0.542136
H      2.661028    1.129319    0.658760
H      6.300446   -2.400165   -1.103695
H      0.736851    5.298354    0.295183
H      9.829825   -0.941243    0.257454
H      0.095070   -2.401323    1.875330
H      2.587660    1.501692   -1.813225
H      8.465355   -1.532676   -1.692263
H     -5.745016    1.472533   -0.480172
H     -6.416899   -1.159659   -0.338866
H      2.423918   -0.483201   -1.641364
H     -3.711463   -0.038836   -1.282114
H      0.488453    0.311796   -1.764184
H     -2.470949   -2.775458   -1.373324
