19

C     -1.289429    1.154481    0.146373
C     -0.321269    2.271561    0.146236
C      0.862157    0.329195    0.466123
C      2.073539   -0.345593   -0.057992
C     -1.023957   -1.239389    0.073652
C     -0.375552    0.010070   -0.317198
O     -0.595225    3.481060    0.039345
O      2.968018    0.369588   -0.561948
O      2.247244   -1.719566   -0.010058
O     -1.356200   -2.079851   -0.799238
O     -1.290089   -1.535640    1.394728
O     -0.182537    0.151821   -1.666573
O      0.951722    1.749694    0.285576
H     -1.588220    0.938933    1.179091
H     -2.131003    1.306821   -0.547587
H      0.688580    0.147917    1.534653
H      2.683859   -2.174952   -0.813985
H     -2.078730   -2.122327    1.688441
H     -0.242908   -0.693822   -2.179640
