37

C      6.631319    1.366367   -0.249646
C     -6.625343   -0.171200    0.401717
C     -6.194560   -0.905627   -0.678352
C     -5.707081    0.560529    1.165171
C     -4.868179   -0.908827   -0.990377
C     -4.386529    0.527234    0.814337
C      2.617127    0.700219    0.704197
C      2.604985   -1.231365   -0.650069
C      3.939756    0.895530    0.372909
C      3.929165   -1.032399   -0.979336
C     -0.290930    0.462772   -0.222016
C      1.933404   -0.379567    0.187007
C     -3.918931   -0.204224   -0.270310
C      4.635365    0.051218   -0.467415
C      0.491260   -0.594910    0.546545
C     -2.511525   -0.210395   -0.605080
N     -1.687976    0.459308    0.097517
O      0.392886   -0.399376    1.912623
O     -2.052869   -0.935149   -1.678606
O      5.969351    0.244683   -0.804026
H      7.716027    1.296573   -0.478275
H      6.289510    2.322721   -0.707251
H      6.475345    1.438951    0.837999
H     -7.663037   -0.126563    0.702055
H     -6.882041   -1.472582   -1.275480
H     -6.064585    1.139211    2.020397
H     -4.530773   -1.487319   -1.840683
H     -3.676467    1.095868    1.408443
H      2.136298    1.404245    1.369746
H      2.035755   -2.084950   -1.048736
H      4.461002    1.758426    0.795123
H      4.432919   -1.722030   -1.642879
H      0.118972    1.446317    0.136152
H     -0.070155    0.357808   -1.302362
H      0.196255   -1.613692    0.298871
H      1.233636   -0.696413    2.327869
H     -1.109357   -1.351391   -1.697263
