40

C     -5.301342    1.512416   -0.231502
C     -0.489998   -0.280518   -2.130507
C     -4.749418    0.136204   -0.403778
C     -3.396679   -0.034340    0.290190
C      2.542057    0.219739    1.050167
C     -2.976006   -1.463950    0.026181
C      1.844743   -0.543309    0.230170
C      3.641042    1.094478    0.561128
C     -1.662227   -1.821262    0.630388
C      0.768148   -1.389563    0.767180
C      4.932765    0.705594    1.222117
C     -0.540991   -0.958674    0.088478
C      6.032588    1.563728    0.747767
O      5.796606    2.470645   -0.102031
O      7.330058    1.404452    1.210030
O     -0.380876   -1.332978   -1.252020
H     -4.958936    2.028649    0.670073
H     -6.425265    1.486756   -0.285681
H     -4.995085    2.110470   -1.130143
H     -0.340898   -0.700305   -3.150300
H      0.254726    0.500629   -1.962898
H     -1.515221    0.183694   -2.073944
H     -4.607559   -0.167619   -1.450775
H     -5.429086   -0.610314    0.079865
H     -3.506569    0.106154    1.393763
H     -2.655811    0.710312   -0.046020
H      2.330827    0.228862    2.107312
H     -2.854943   -1.570022   -1.091743
H     -3.800111   -2.110333    0.335073
H      2.092458   -0.518494   -0.811808
H      3.754286    0.986980   -0.550237
H      3.416345    2.153397    0.777652
H     -1.671913   -1.838451    1.738317
H     -1.427273   -2.863824    0.315894
H      0.677077   -1.275367    1.862279
H      0.918528   -2.469300    0.507304
H      5.174546   -0.356717    1.019367
H      4.776175    0.823072    2.330708
H     -0.726610    0.107068    0.209452
H      8.129842    1.772039    0.725596
