40

C      4.099076   -1.432292    1.841369
C     -3.261227    1.575992    2.383831
C      2.991556   -0.798265    1.013623
C      3.576209   -0.465989   -0.326939
C      2.528104    0.181943   -1.187035
C      1.380967   -0.773341   -1.366602
C      0.345667   -0.144653   -2.258592
C     -0.160168    1.128520   -1.653775
C     -0.752384    0.862777   -0.300356
C     -3.077670    0.957242    1.231618
C     -1.892970   -0.109292   -0.436348
C     -2.521393   -0.391216    0.943708
C     -3.589452   -1.384380    0.708749
C     -3.402650    1.501478   -0.081526
O     -4.789977   -1.022296    0.770060
O     -3.339233   -2.714272    0.419866
O     -3.973799    2.607251   -0.330754
O     -2.968410    0.576460   -1.053852
H      4.195533   -2.506473    1.684736
H      5.053080   -0.936465    1.531339
H      3.943298   -1.239769    2.930573
H     -3.679326    2.555733    2.394810
H     -3.000552    1.123009    3.337353
H      2.538666    0.074274    1.488057
H      2.209640   -1.598412    0.939847
H      3.880948   -1.420992   -0.842476
H      4.448556    0.193250   -0.271195
H      2.972509    0.510524   -2.127101
H      2.126195    1.100843   -0.661310
H      1.728658   -1.754441   -1.780185
H      0.872246   -1.026331   -0.414545
H      0.885823    0.095288   -3.219933
H     -0.470805   -0.847825   -2.526853
H      0.609386    1.932648   -1.603318
H     -0.951478    1.545400   -2.353074
H     -0.028214    0.531857    0.443708
H     -1.141489    1.853658    0.109033
H     -1.622327   -1.043845   -0.919378
H     -1.767247   -0.716117    1.669205
H     -3.995347   -3.286639   -0.126338
