45

C     -0.927606   -3.285001   -2.040123
C      5.055198    0.564108    1.293593
C     -4.268075    0.718219    1.498128
C      2.739943    0.351808    0.388298
C      6.410961    0.861972    1.108785
C     -5.615186    0.509566    1.642016
C      2.160031   -0.026714    1.500733
C      4.683916    1.046930   -0.979031
C     -4.409132    0.244127   -0.831835
C     -2.206834    0.826439    0.104654
C      4.160809    0.650268    0.251960
C     -3.648670    0.589358    0.267228
C      6.910155    1.252443   -0.115196
C     -6.349732    0.166921    0.534675
C      6.015584    1.339535   -1.160761
C     -5.753409    0.030323   -0.716260
C     -1.427471   -0.427131    0.390617
C      0.733023   -0.305000    1.549370
C     -1.759323   -1.565973   -0.477806
O      8.261063    1.542036   -0.269789
O     -7.715530   -0.051162    0.647695
O      6.514324    1.735956   -2.409625
O     -6.504338   -0.316805   -1.831831
O      0.137171   -0.667731    2.584579
O     -2.885558   -2.046226   -0.658007
O     -0.704404   -2.177293   -1.176553
O     -0.025362   -0.166749    0.397131
H     -2.029078   -3.447108   -2.083731
H     -0.507390   -4.180226   -1.509718
H     -0.484781   -3.141895   -3.036134
H      4.712501    0.259081    2.286021
H     -3.644431    0.994456    2.362260
H      2.097507    0.444724   -0.488742
H      7.099317    0.786816    1.947022
H     -6.057865    0.621979    2.626753
H      2.747189   -0.134076    2.393721
H      3.979229    1.115515   -1.802388
H     -3.983148    0.133546   -1.835391
H     -2.027882    1.211115   -0.923252
H     -1.895326    1.629324    0.796883
H     -1.692201   -0.729350    1.428785
H      8.868847    1.463568    0.519569
H     -8.179378    0.038288    1.534092
H      7.480736    1.951778   -2.556979
H     -6.065394   -0.411761   -2.723495
