45

C     -5.576811   -1.026292   -1.627495
C     -5.606067   -0.408177    2.120207
C     -3.137512    1.752498   -0.273717
C      7.385271   -0.781609   -0.165483
C     -5.890666   -1.135319   -0.169821
C     -1.325807    0.071142    0.312683
C     -0.349946    0.857708   -0.091964
C     -3.687652   -0.378439    0.678064
C      2.026671    1.165255   -0.394662
C      2.641132   -1.366627    0.635827
C     -5.142619   -0.124071    0.678375
C     -2.749335    0.429287    0.263246
C      1.055516    0.393337    0.003411
C      3.412838    0.723308   -0.307400
C      3.674782   -0.611191    0.240223
C      4.424524    1.464077   -0.695191
C      5.046072   -1.084797    0.341589
C      5.799790    0.997674   -0.596705
C      6.138569   -0.081794    0.364987
Cl     4.106970    3.056945   -1.348595
O      5.262317   -2.313556    0.405532
O      6.681517    1.508430   -1.320560
O      6.353435    0.423222    1.644355
O      1.357975   -0.858440    0.512991
H     -4.551279   -1.454522   -1.820824
H     -5.525719    0.034995   -1.957360
H     -6.296240   -1.621117   -2.194710
H     -6.685651   -0.647022    2.140179
H     -5.456004    0.470704    2.764098
H     -5.069560   -1.254440    2.557896
H     -4.145933    1.782725   -0.728340
H     -2.966020    2.574460    0.433387
H     -2.452723    1.949984   -1.155100
H      8.147748   -0.061818   -0.482853
H      7.718276   -1.474614    0.632781
H      7.015581   -1.428648   -1.010509
H     -5.617623   -2.132983    0.214062
H     -6.985853   -1.020756   -0.042644
H     -1.012263   -0.907602    0.705913
H     -0.575954    1.836145   -0.487754
H     -3.346410   -1.349365    1.067124
H      1.789551    2.154311   -0.797416
H      2.845334   -2.353929    1.040224
H     -5.450036    0.895081    0.473848
H      6.719813    1.335839    1.636152
