21

C      3.624646   -0.141515    0.264319
C      2.179725    0.027617    0.610156
C      1.247225    0.224822   -0.297899
C     -2.487221    0.245094   -0.742772
C     -2.865022    0.017603    0.495684
C     -1.075014    0.089512   -1.119251
C     -0.194436    0.392584    0.059861
C     -1.895510   -0.388703    1.515799
O     -0.901914   -1.291056   -1.380199
O     -2.283578   -0.602694    2.686831
O     -0.557262   -0.516319    1.102056
H      4.147986    0.845316    0.250757
H      4.099476   -0.815490    0.990476
H      3.681181   -0.518850   -0.784772
H      1.839581   -0.007860    1.658864
H      1.510361    0.269761   -1.333853
H     -3.200253    0.549816   -1.508851
H     -3.912819    0.134015    0.761541
H     -0.800293    0.686123   -2.016551
H     -0.395479    1.424432    0.395892
H     -1.761378   -1.724157   -1.608088
