57

C      8.711897    0.429233   -0.789624
C      6.806323    1.831345    0.265338
C      2.722122   -1.646802    1.567150
C     -7.341477   -0.988031   -2.156402
C     -1.528306   -1.397345    1.767004
C      5.296133   -0.490469    0.558856
C      0.617967   -0.056619    0.597533
C      6.639903   -0.562189   -0.040185
C      4.220412   -0.983784   -0.394410
C      1.917818   -0.124313   -0.151779
C     -3.141117    1.571935    0.764191
C     -0.521724   -0.542808   -0.255130
C     -2.037363    0.893421    0.996439
C     -5.082883   -0.910060   -1.093588
C      7.360843    0.531994   -0.182501
C      2.887833   -0.867733    0.310733
C     -6.271433   -0.277501   -1.388822
C     -4.246738    0.979497    0.028913
C     -4.033372   -0.335504   -0.388809
C     -6.425842    1.012910   -0.953647
C     -5.405734    1.650433   -0.237701
C     -7.664158    1.751939   -1.229707
C     -1.800752   -0.484151    0.554716
O     -5.606760    2.941415    0.176388
O     -8.577096    1.198400   -1.863765
O     -7.847825    3.055127   -0.802802
O     -2.876382   -1.008897   -0.123664
H      8.859967    1.338933   -1.407511
H      9.486119    0.332565   -0.003068
H      8.798462   -0.462328   -1.462413
H      5.843437    2.062603   -0.241344
H      6.604712    1.809022    1.358944
H      7.554157    2.630925    0.067728
H      3.652575   -2.193466    1.847069
H      1.852872   -2.354078    1.515342
H      2.534953   -0.944331    2.404742
H     -7.523813   -0.428280   -3.085961
H     -7.004874   -2.016537   -2.433586
H     -8.232297   -1.040038   -1.514126
H     -0.791880   -2.185296    1.505013
H     -1.136673   -0.755691    2.581623
H     -2.470743   -1.892212    2.085719
H      5.071711    0.550106    0.887460
H      5.316627   -1.098600    1.484303
H      0.472708    0.997037    0.968554
H      0.732963   -0.670492    1.507210
H      7.017057   -1.541723   -0.360003
H      4.233484   -0.459755   -1.347855
H      4.377761   -2.086240   -0.520789
H      2.044840    0.439986   -1.066811
H     -3.226205    2.603550    1.133207
H     -0.336121   -1.547285   -0.648007
H     -0.576925    0.161764   -1.132621
H     -1.282698    1.451153    1.580734
H     -4.950548   -1.931268   -1.433339
H     -4.928225    3.459184    0.689313
H     -8.765693    3.390502   -0.494252
