57

C     -8.195835   -0.589271    1.427718
C     -7.055604   -0.249181   -0.870260
C     -2.559277    0.486797   -1.428085
C      6.201740    1.901360    1.981085
C      1.863619    0.449751   -3.365825
C     -4.548223   -0.843633    0.261873
C      0.086447   -0.198652   -0.118252
C     -5.785755   -0.850052    1.084656
C     -3.610696    0.189253    0.853042
C     -1.211958   -0.122666    0.515715
C      3.010216   -1.886453   -0.979268
C      0.271498    0.225267   -1.513483
C      2.044228   -1.439748   -1.772244
C      4.391324    1.273477    0.400427
C     -6.983704   -0.572069    0.571536
C     -2.358113    0.167470   -0.012624
C      5.408712    0.881885    1.240706
C      3.828049   -0.949250   -0.222740
C      3.613062    0.395933   -0.318561
C      5.642474   -0.493663    1.350587
C      4.864193   -1.392154    0.630203
C      6.696222   -0.940819    2.218812
C      1.761368   -0.011873   -1.920457
O      5.010556   -2.752377    0.666667
O      6.967632   -2.148149    2.372063
O      7.454193    0.004103    2.925010
O      2.589443    0.836984   -1.160933
H     -8.044922    0.149754    2.233683
H     -9.081414   -0.340369    0.811527
H     -8.384125   -1.594235    1.851694
H     -6.418684    0.646623   -1.034107
H     -8.112450   -0.044885   -1.124280
H     -6.690438   -1.090424   -1.509341
H     -3.644040    0.841241   -1.564740
H     -1.984944    1.336376   -1.817312
H     -2.545493   -0.425970   -2.083494
H      6.089869    1.820465    3.074402
H      7.263948    1.888906    1.665040
H      5.831525    2.905561    1.637582
H      1.169750    1.309228   -3.482689
H      2.901216    0.739660   -3.634492
H      1.527930   -0.342295   -4.074555
H     -4.832869   -0.613522   -0.779018
H     -4.066443   -1.843198    0.242260
H      0.483285   -1.273113    0.032202
H      0.863914    0.374627    0.521707
H     -5.670609   -1.094678    2.138058
H     -3.373645   -0.110940    1.886038
H     -4.106270    1.162689    0.795097
H     -1.276466   -0.339252    1.627559
H      3.201846   -2.943253   -0.884649
H     -0.284810   -0.254738   -2.292293
H      0.220558    1.355270   -1.600357
H      1.441619   -2.132833   -2.329843
H      4.192245    2.333506    0.299747
H      5.640329   -3.274390    1.168687
H      8.293783   -0.315937    3.408518
