36

C      4.962887    0.171734   -0.078918
C      3.961272   -0.952615   -0.072306
C      1.579554   -1.724358   -0.247969
C     -1.999884    2.668539    0.075197
C     -4.139045    1.669411   -0.201808
C      2.038490    0.607997   -0.433406
C     -0.023544    1.385328    0.548619
C     -0.662320   -1.535808    0.719061
C      2.671286   -0.720141   -0.232896
C     -1.490936    1.414959    0.286957
C     -3.352190    2.802892   -0.174833
C      0.280908   -0.905795   -0.244320
C     -3.652068    0.402067    0.007426
C     -2.286672    0.275484    0.258958
C     -3.130457   -1.718066    0.306026
Cl    -4.040819    4.402599   -0.451924
N     -4.134373   -0.847870    0.045157
N      0.693436    0.384984   -0.072950
N     -2.011634   -1.030203    0.434695
S     -3.264633   -3.493663    0.456125
H      5.969495   -0.198039   -0.309500
H      4.865481    0.690760    0.880144
H      4.704762    0.895501   -0.903410
H      4.371088   -1.953162    0.071956
H      1.628828   -2.408740   -1.111785
H      1.613636   -2.375578    0.663808
H     -1.362077    3.523796    0.103257
H     -5.207067    1.774839   -0.399187
H      2.068027    0.867553   -1.530952
H      2.551453    1.409818    0.128414
H      0.354067    2.391460    0.228992
H      0.073489    1.403769    1.669962
H     -0.391610   -1.430543    1.766783
H     -0.708946   -2.630915    0.478949
H     -0.160983   -1.049726   -1.275088
H     -2.368901   -4.168268   -0.372577
