34

C     -3.456405    0.349359    1.275187
C      1.365250    1.335351   -0.823707
C      3.582899   -0.076591    1.404594
C      2.865066    1.229786   -0.609601
C      3.007397   -0.122292    0.011912
C      0.999016   -0.104573   -0.954056
C     -1.148089    0.025443    0.410275
C     -3.149924   -0.353734   -1.016786
C     -1.085261   -1.127205   -1.739988
C     -2.545558    0.451799    0.055331
Br    -2.567972    2.310230   -0.536822
F      3.489223    1.185220   -1.852326
N     -0.786239   -3.353656    0.332112
N     -2.504472   -1.082032   -1.848107
N     -1.277910   -1.149841    1.279137
N     -1.164126   -2.286720    0.828008
N     -0.396081   -0.383232   -0.734642
O      2.775186    0.698790    2.213666
O     -4.552942   -0.307564   -1.121782
O     -0.391490   -1.838179   -2.544169
O      1.731025   -0.680160    0.103169
H     -2.934016    0.818542    2.149121
H     -4.411469    0.859760    1.105448
H     -3.613863   -0.711265    1.561891
H      0.944342    1.826288    0.069350
H      1.215139    1.929395   -1.748599
H      4.627679    0.276956    1.343569
H      3.606421   -1.136289    1.771430
H      3.246310    2.058117    0.017230
H      3.599607   -0.835086   -0.624032
H      1.388026   -0.502230   -1.888552
H     -0.675242    0.821319    1.006078
H      3.259035    1.113111    2.976712
H     -5.040563   -0.785705   -1.871052
