67

C      6.040996   -0.315122   -0.888611
C      1.600026    4.876082    0.355053
C      0.882151   -2.573432    2.478209
C     -3.730835   -2.462539    0.374642
C     -2.050579    1.048208    1.528199
C      2.720656    1.438319   -0.278837
C      4.161389    1.180263   -0.450496
C      2.229534    2.705661   -0.912366
C      3.635214   -1.196279   -0.850846
C     -0.554966   -1.527688    0.817053
C     -0.852275   -1.076198   -0.522683
C      2.952945   -1.616499    0.403665
C      0.078468    3.011737    0.319195
C     -0.302850    1.662650   -0.073010
C     -5.542708   -1.279604   -0.746603
C      4.561569   -0.044593   -0.711883
C      1.260228    3.470671   -0.083121
C      0.610160   -2.116305    1.065206
C     -4.061310   -1.515057   -0.783245
C     -1.840231   -0.033225   -0.754769
C      1.665095   -2.364954    0.078968
C     -3.255974   -0.262502   -0.707290
C     -3.837292    0.931514   -0.603833
C     -2.777520    1.978856   -0.546971
C     -1.681429    1.214326    0.084335
O     -6.167750   -2.537421   -0.897904
O      2.010166   -3.740249    0.157255
O     -5.212393    1.236505   -0.551903
O     -2.862431    3.159023   -0.943177
H      6.249359   -1.324770   -0.522250
H      6.378141   -0.097752   -1.901051
H      6.593116    0.388185   -0.203885
H      2.700687    4.914521    0.429645
H      1.069781    5.127702    1.279854
H      1.321729    5.520921   -0.503996
H      1.877400   -2.210546    2.770125
H      0.068731   -2.289759    3.156042
H      0.930059   -3.688887    2.429385
H     -2.877680   -3.068775    0.076615
H     -4.629545   -3.096704    0.547900
H     -3.563377   -1.915109    1.313780
H     -2.472883    2.052371    1.843132
H     -1.184978    0.912027    2.203906
H     -2.875269    0.350828    1.662611
H      2.573555    1.560933    0.814514
H      2.185220    0.612375   -0.736704
H      4.873685    1.975503   -0.364350
H      3.107899    3.334900   -1.124317
H      1.766595    2.486157   -1.904398
H      2.907676   -1.011215   -1.697086
H      4.193010   -2.111557   -1.217533
H     -1.251653   -1.403735    1.627314
H     -1.086050   -1.952776   -1.159645
H      0.124144   -0.678570   -0.947626
H      3.641228   -2.291347    0.955993
H      2.726190   -0.799819    1.116683
H     -0.603977    3.603195    0.923798
H      0.022581    1.527486   -1.141492
H      0.273862    0.969563    0.618440
H     -5.937328   -0.856998    0.172632
H     -5.790266   -0.687720   -1.677009
H     -3.824538   -1.998983   -1.750899
H     -1.636655    0.349784   -1.815531
H      1.397739   -2.233927   -0.971576
H     -5.914269   -2.893406   -1.780640
H      2.690627   -3.848517    0.854670
H     -5.702601    1.522275    0.268721
