18

C      1.994450    0.813255    1.379364
C      1.188442    1.687659    0.691358
C      1.749810   -0.533859    1.191085
C      0.186592    1.243605   -0.144306
C      0.759322   -0.992448    0.365143
C     -2.040318    0.561951   -1.422612
C     -0.028236   -0.093667   -0.307670
C     -1.121260   -0.558379   -1.219931
N     -2.778173    1.449726   -1.591596
N     -1.901290   -1.626968   -0.611349
H      2.772003    1.176368    2.027750
H      1.341387    2.757148    0.806155
H      2.373890   -1.264156    1.724458
H     -0.442658    1.968514   -0.681958
H      0.587932   -2.058786    0.234632
H     -0.712182   -0.861096   -2.195306
H     -1.345481   -2.424792   -0.297971
H     -2.584231   -1.244075    0.052755
