55

C      4.916378    1.317535    0.777865
C     -3.633333    1.387936    0.844996
C     -3.316731    1.532580   -1.550932
C      3.199641    1.141983   -1.763406
C     -1.252696   -1.449447    1.039164
C      1.911562   -0.936468    1.774631
C      4.550406    0.292493    0.040601
C     -2.845645   -1.619633   -1.323262
C      1.444159   -1.597537   -0.911880
C     -0.923362    1.374281    1.058904
C     -3.585297   -0.638226   -0.483340
C     -1.382187   -1.384462   -1.444760
C      2.875206   -1.136512   -0.923140
C      0.327340    0.934754    1.659532
C     -1.453428    0.664252   -0.132213
C      0.621506   -0.478813   -0.348130
C     -2.918605    0.690990   -0.324066
C      3.139948    0.242925   -0.515363
C     -0.839693   -0.746232   -0.192927
C      1.268552    0.087234    0.866095
O      2.350642    0.861795    0.383611
H      5.917514    1.364490    1.179377
H      4.223916    2.115844    0.986856
H     -4.699564    1.496293    0.484439
H     -3.688447    0.758939    1.732431
H     -3.269278    2.405303    0.986046
H     -4.250796    2.069907   -1.393149
H     -2.460762    2.192048   -1.834120
H     -3.472724    0.853289   -2.423906
H      2.617252    0.633680   -2.551214
H      4.220148    1.281757   -2.125794
H      2.774804    2.137856   -1.561622
H     -1.875078   -0.812912    1.735736
H     -0.468522   -1.876956    1.657533
H     -1.897145   -2.325253    0.727936
H      1.409712   -0.908277    2.788164
H      2.984785   -0.692249    2.024729
H      1.908578   -1.956158    1.419220
H      5.255110   -0.493856   -0.156871
H     -3.260571   -1.668286   -2.373472
H     -3.072263   -2.645627   -0.908007
H      1.290233   -2.573567   -0.414766
H      1.053740   -1.764789   -1.962782
H     -1.745561    1.357926    1.837920
H     -0.871482    2.473804    0.792470
H     -3.919827   -1.061431    0.510782
H     -4.572747   -0.448648   -1.005057
H     -1.193755   -0.694335   -2.284214
H     -0.876698   -2.348314   -1.673277
H      3.507534   -1.881267   -0.358193
H      3.243269   -1.265261   -1.987532
H      0.921993    1.840490    1.990567
H      0.120537    0.411130    2.641662
H     -0.993590    1.173292   -1.036252
H      0.685324    0.309711   -1.166771
