34

C     -2.270990    0.987469    1.174045
C      1.621489   -1.027702   -1.149913
C      2.942958   -0.194762    1.851609
C      2.993301   -0.617564   -0.594945
C      2.596645    0.364109    0.466189
C      0.890401    0.296900   -0.978844
C     -1.388592   -0.714899   -0.399284
C     -3.238846    0.864153   -1.012745
C     -1.185149    1.012215   -2.116910
C     -2.629722    0.018963    0.031475
Br    -3.924648   -1.217385    0.771200
F      3.638639    0.104398   -1.601334
N     -0.782859   -3.452641    1.635775
N     -2.554092    1.306281   -1.984615
N     -0.719880   -1.185659    0.811502
N     -0.994178   -2.280863    1.307422
N     -0.507433    0.187768   -1.143876
O      2.585615    0.710331    2.834053
O     -4.626295    1.184582   -0.918405
O     -0.468564    1.435242   -3.068556
O      1.250232    0.614465    0.346078
H     -2.335297    0.502607    2.149524
H     -1.297545    1.456086    0.948092
H     -3.016141    1.834966    1.185472
H      1.228288   -1.787639   -0.463461
H      1.686262   -1.334855   -2.195990
H      2.402538   -1.152119    2.011878
H      4.025534   -0.390135    1.857217
H      3.571013   -1.470169   -0.243703
H      3.140419    1.328650    0.395179
H      1.391365    1.021654   -1.617548
H     -1.702168   -1.576452   -1.012522
H      2.722807    1.647276    2.504382
H     -5.045106    1.524731   -1.778443
