18

C      2.439618    0.405179    0.574145
C      2.073798   -0.930189    0.417929
C      1.502479    1.405309    0.425559
C      0.758895   -1.212670    0.113507
C      0.181148    1.087159    0.117703
C     -2.399258   -0.400893    0.851570
C     -0.202165   -0.214361   -0.040428
C     -1.612526   -0.581399   -0.370665
N     -3.012430   -0.257821    1.832023
N     -2.165364    0.248852   -1.411521
H      3.487056    0.610867    0.815542
H      2.781325   -1.728399    0.527654
H      1.838226    2.427457    0.557351
H      0.409175   -2.226654   -0.020889
H     -0.525081    1.881268    0.008084
H     -1.650394   -1.630962   -0.737393
H     -1.923347    1.243909   -1.332986
H     -1.981155   -0.126651   -2.362021
