33

C     -0.485302    1.663070   -0.267022
C     -2.724745    0.306655   -0.999577
C     -2.760087    0.298538    1.316263
C     -2.152350   -1.633513    0.169124
C      4.503424    0.036521   -0.212540
C      3.636311    0.797835    0.534159
C      3.984873   -0.927044   -1.053234
C      2.255407    0.604923    0.448317
C      2.640175   -1.094787   -1.118766
C     -0.656138    0.248746    0.236753
C      1.707456   -0.351066   -0.384004
C      0.285801   -0.587702   -0.517573
N     -2.022452   -0.200221    0.154827
O     -0.104891   -1.497106   -1.270313
Br     0.000000    0.000000    0.000000
H     -0.399299    2.405635    0.549791
H     -1.347994    2.001156   -0.877080
H      0.398816    1.792848   -0.919697
H     -2.089378    0.384199   -1.899551
H     -3.537205   -0.418401   -1.251084
H     -3.240648    1.253843   -0.749950
H     -3.835083    0.016957    1.220110
H     -2.391326   -0.168415    2.249180
H     -2.647776    1.383535    1.390353
H     -3.042189   -1.938517    0.761193
H     -1.287001   -2.140637    0.640153
H     -2.352257   -1.987198   -0.866391
H      5.569915    0.156626   -0.172453
H      4.025757    1.551054    1.192369
H      4.615579   -1.557725   -1.665979
H      1.595417    1.212462    1.050655
H      2.207103   -1.849838   -1.775828
H     -0.349913    0.237567    1.299197
