61

C     -8.169767   -0.991951   -1.742206
C      7.468187   -0.778318   -1.094845
C     -7.173492   -1.944466   -1.810458
C     -7.928406    0.192293   -1.097451
C      6.538262   -1.796813   -1.170929
C      7.076003    0.419965   -0.534987
C      0.465646   -2.001121   -0.287811
C      0.030045   -1.285739    1.005305
C     -0.059198    2.473003    1.493625
C     -5.975726   -1.643886   -1.216819
C     -6.699852    0.485689   -0.495497
C      5.266751   -1.598165   -0.696371
C      5.778450    0.632863   -0.046989
C     -4.391716   -0.248536    0.034733
C     -4.021429    0.828394    0.677219
C      1.991604   -2.037068   -0.315933
C      0.185744    2.273226    0.045335
C     -1.371419   -0.745930    0.881514
C     -0.580097    1.254131    2.220336
C      3.136971    1.150979    0.766090
C     -5.714890   -0.459179   -0.564467
C      4.866993   -0.379092   -0.126660
C      3.512327   -0.248497    0.353049
C      2.635128    2.003009   -0.340504
C     -2.811702    1.193454    1.304547
N      2.464736   -0.743461   -0.443405
N      1.467789    2.343713   -0.471613
N     -1.599838    0.527759    1.439385
O      3.619450    2.417080   -1.274680
O     -2.896493    2.404654    1.855867
H     -9.106536   -1.228833   -2.207311
H      8.480825   -0.935562   -1.472412
H     -7.296310   -2.893976   -2.300719
H     -8.739758    0.918130   -1.065158
H      6.862023   -2.720186   -1.609206
H      7.818107    1.201439   -0.485492
H      0.091793   -1.484589   -1.177964
H      0.092910   -3.038121   -0.302493
H      0.018206   -2.076011    1.782768
H      0.802062   -0.580254    1.265932
H     -0.780416    3.343942    1.622618
H      0.828533    2.831731    2.081464
H     -5.192517   -2.397620   -1.272825
H     -6.613791    1.448631   -0.012925
H      4.572566   -2.435342   -0.779789
H      5.612300    1.615585    0.365416
H     -3.698929   -1.046331   -0.067483
H     -4.868582    1.582594    0.708565
H      2.253893   -2.454687    0.701456
H      2.234539   -2.753750   -1.119240
H     -0.434647    3.038671   -0.534091
H     -0.376356    1.315744   -0.219249
H     -1.569370   -0.720144   -0.206002
H     -2.063638   -1.469873    1.349197
H      0.180183    0.637066    2.664044
H     -1.151108    1.669352    3.109220
H      2.352591    1.108851    1.600743
H      3.968945    1.663190    1.341460
H      3.480033   -0.860865    1.318783
H      1.701174   -0.063465   -0.536382
H      3.431211    3.086694   -1.991046
