21

C     -2.079454    1.023120    0.383286
C     -1.041870   -1.483585   -0.292530
C     -0.697790    0.917592   -0.254868
C     -0.082123   -0.394994    0.201678
C      1.270916   -0.584840   -0.450097
C      2.271100    0.419962   -0.032274
O      1.731628   -1.832510    0.027617
O      3.306012    0.108046    0.654164
O      2.188228    1.775108   -0.338057
H     -2.842579    0.478747   -0.208979
H     -2.085222    0.584424    1.403963
H     -2.393549    2.089538    0.397469
H     -1.602796   -1.916498    0.560076
H     -0.454134   -2.300017   -0.777826
H     -1.749215   -1.114129   -1.037016
H     -0.093188    1.801297    0.044246
H     -0.831599    0.875843   -1.351844
H      0.006570   -0.439676    1.299957
H      1.175725   -0.640400   -1.537631
H      1.496272   -1.846700    0.987306
H      2.507067    2.479672    0.321359
