61

C      8.346833    1.039627   -1.421308
C     -5.893534    1.056932   -2.514429
C      8.014083   -0.247102   -1.083512
C      7.381782    1.998185   -1.336183
C     -4.530300    0.890363   -2.574884
C     -6.514183    0.717078   -1.335483
C     -1.099609   -2.069165   -0.922526
C     -0.192847   -2.543174    0.162002
C      0.149616    1.253660    1.605434
C      6.719002   -0.573610   -0.661673
C      6.119002    1.677186   -0.924366
C     -3.802930    0.397203   -1.487386
C     -5.796368    0.237148   -0.280767
C      4.364452    0.148633   -0.145239
C      3.904853   -1.025158    0.207402
C     -2.557872   -2.132888   -0.463438
C     -0.854507    1.562291    0.548409
C      0.228637   -1.575019    1.195524
C      1.372137    0.660116    0.924269
C     -3.333996    0.551522    1.926435
C      5.757684    0.386399   -0.577882
C     -4.399312    0.049866   -0.296651
C     -3.737207   -0.461366    0.894453
C     -3.062052    1.897258    1.495278
C      2.618991   -1.448449    0.648558
N     -2.730384   -1.453521    0.751160
N     -2.011023    2.284205    0.921605
N      1.414303   -0.772163    0.893138
O     -4.039501    2.902365    1.718445
O      2.508557   -2.745727    0.874824
H      9.360280    1.288300   -1.750041
H     -6.467970    1.440285   -3.356662
H      8.777718   -0.999743   -1.151906
H      7.620301    3.030715   -1.599118
H     -3.993885    1.141689   -3.476336
H     -7.606762    0.846764   -1.276412
H     -1.040354   -2.864217   -1.746632
H     -0.820437   -1.154370   -1.422588
H     -0.747953   -3.370005    0.729143
H      0.664095   -3.137605   -0.286151
H     -0.185431    0.732983    2.488992
H      0.495318    2.270746    1.986779
H      6.521846   -1.591157   -0.412939
H      5.373382    2.452781   -0.865418
H     -2.738112    0.281832   -1.579973
H     -6.322286   -0.017235    0.626842
H      3.669478    0.966233   -0.130811
H      4.670846   -1.835676    0.148510
H     -2.679357   -3.247438   -0.217709
H     -3.278141   -1.979758   -1.266022
H     -1.099103    0.654004   -0.035534
H     -0.274216    2.195198   -0.218507
H     -0.588654   -0.986949    1.576273
H      0.573471   -2.201378    2.085433
H      2.263246    1.014346    1.520293
H      1.404708    1.068517   -0.084916
H     -4.116743    0.635724    2.754758
H     -2.467408    0.110445    2.510463
H     -4.574671   -1.053948    1.440544
H     -2.668612   -2.083111    1.604430
H     -4.068899    3.729334    1.103319
