27

C      2.451231   -0.197330   -0.555499
C      1.308245    0.494800    1.525352
C     -1.904270   -0.271789    0.495138
C     -0.905235   -1.322092    0.908626
C     -0.133444   -0.788649   -1.335619
C     -2.006778    1.877985   -0.742883
C     -1.162331    0.946173    0.026463
C      0.328627   -1.323021    0.028427
C      0.102459    0.599803   -0.721226
C      1.117134   -0.050256    0.146922
O     -1.574679    2.947733   -1.086219
H      2.449805   -1.036656   -1.272175
H      3.233922   -0.410696    0.205861
H      2.737803    0.707409   -1.123720
H      1.771425    1.500213    1.427817
H      0.431689    0.472307    2.165943
H      2.088744   -0.138508    2.022422
H     -2.517472    0.034693    1.391624
H     -2.646021   -0.646769   -0.238994
H     -1.407010   -2.315570    0.716869
H     -0.645715   -1.249397    1.976555
H     -1.164108   -1.010937   -1.592761
H      0.554944   -1.002207   -2.157608
H     -3.007826    1.596256   -0.994234
H     -0.826914    1.513706    0.944279
H      0.877118   -2.259067   -0.002992
H      0.448658    1.331869   -1.452019
