27

C     -1.298760    0.487492    1.511783
C     -2.405976    0.275385   -0.696001
C      1.804652   -0.646572    0.473076
C      0.643872   -1.565234    0.717604
C      0.052232   -0.630861   -1.448837
C      2.268700    1.595616   -0.497041
C      1.276846    0.752096    0.196545
C     -0.537962   -1.263846   -0.179185
C      0.030684    0.682352   -0.650556
C     -1.141383    0.084335    0.087398
O      3.010124    2.330830    0.163358
H     -2.195038    0.004905    1.918956
H     -0.457660    0.265604    2.165541
H     -1.517049    1.592898    1.521193
H     -2.931188   -0.680827   -0.782733
H     -3.052170    1.028103   -0.189748
H     -2.207514    0.713659   -1.716234
H      2.408904   -0.584674    1.424263
H      2.504139   -0.999430   -0.296099
H      0.382765   -1.555364    1.792298
H      0.942645   -2.619333    0.489822
H     -0.683992   -0.561614   -2.264552
H      1.043497   -0.986781   -1.720091
H      2.399469    1.620131   -1.564829
H      1.060075    1.216494    1.189020
H     -1.219093   -2.094642   -0.355877
H     -0.180822    1.539276   -1.289076
