27

C     -2.398174   -0.447139    0.164163
C     -1.457951   -0.474407    1.381414
C      0.855168    0.230173    1.524154
C      1.537172   -0.543527   -1.504749
C      0.949142    0.653283   -0.852001
C     -1.489103   -0.059130   -1.020428
C      1.754384    0.863591    0.447626
C     -0.381477    0.531331   -0.292073
N     -0.163909   -0.447390    0.792430
O      1.398384   -1.629873   -0.614516
O     -1.230678   -1.215219   -1.705075
O      1.858904    2.234478    0.703888
H     -3.149810    0.376989    0.320287
H     -2.884781   -1.407230   -0.001548
H     -1.660695    0.339046    2.076182
H     -1.618974   -1.480762    1.865854
H      1.489856   -0.476677    2.122688
H      0.406569    1.020245    2.127582
H      1.131537   -0.779548   -2.498469
H      2.631920   -0.340011   -1.662485
H      1.058687    1.529062   -1.523455
H     -2.076991    0.679349   -1.639273
H      2.732278    0.361372    0.395056
H     -0.686416    1.465973    0.198771
H      2.287535   -1.846130   -0.230703
H     -2.094896   -1.628640   -1.993303
H      1.202319    2.490791    1.417982
