27

C     -2.543527    0.324668    0.023483
C     -2.054878   -1.065673   -0.322887
C      0.219236   -1.783376   -0.476645
C      1.663606    1.563317    0.179779
C      1.088266    0.368709   -0.493096
C     -1.213515    1.047000    0.255133
C      1.213264   -0.906763    0.277547
C     -0.356386    0.447052   -0.814882
N     -0.790405   -0.909367   -1.003671
O      3.039235    1.305552    0.381115
O     -0.814899    0.731564    1.539994
O      2.475455   -1.463869    0.234333
H     -3.146724    0.324513    0.950358
H     -3.071000    0.721051   -0.856507
H     -2.780065   -1.573726   -0.985620
H     -1.861818   -1.632660    0.621224
H      0.788658   -2.183441   -1.366050
H     -0.176744   -2.597274    0.137500
H      1.245654    1.768128    1.163213
H      1.624216    2.413852   -0.520188
H      1.643528    0.215942   -1.462294
H     -1.381589    2.120037    0.168781
H      0.932814   -0.808189    1.344706
H     -0.531967    1.004868   -1.756694
H      3.478398    1.130464   -0.505455
H     -1.568798    1.006529    2.144899
H      2.879986   -1.568909    1.141925
