27

C     -2.969448    0.420521   -0.855323
C     -2.223635   -1.823691   -1.423687
C      3.350746    0.735238    0.901057
C     -0.381143    1.327182   -0.093010
C      0.883800    1.439444    0.683199
C     -0.121486   -1.005063    0.604272
C     -1.977011   -0.433426   -0.923410
C     -0.621764   -0.087426   -0.521592
C      1.385765   -0.938224    0.609195
C      1.934339    0.431935    0.424210
O      1.921773   -0.483177   -0.592571
H     -3.975970    0.076379   -1.176266
H     -2.830486    1.431355   -0.505541
H     -1.295970   -2.286349   -1.766272
H     -2.915173   -1.737852   -2.305174
H     -2.723485   -2.382779   -0.607315
H      3.973495   -0.192163    0.834304
H      3.785227    1.431251    0.138083
H      3.370754    1.139465    1.911870
H     -0.314213    2.034626   -0.958068
H     -1.216487    1.660762    0.589369
H      0.621930    1.352692    1.780575
H      1.284254    2.478686    0.593064
H     -0.412555   -2.027196    0.318474
H     -0.576899   -0.700433    1.551834
H      0.093101   -0.254063   -1.388286
H      1.950545   -1.607695    1.253990
