38

C      3.674291   -0.932732   -0.690918
C      3.579942    1.142253    0.510703
C     -0.948805    2.694018    1.162566
C     -1.075907   -0.678572   -2.030792
C      1.050020   -1.657993   -0.150707
C     -3.256880   -0.356678    0.937561
C     -0.434802   -1.894248    0.030473
C     -2.698835   -1.033177   -0.280086
C      0.699523    0.820590   -0.159503
C      2.918959   -0.120679    0.030089
C     -1.516307    1.411353    0.651768
C      1.502778   -0.341494    0.390835
C     -0.754163    0.533822    0.033267
C     -2.925138    1.086708    0.835954
C     -1.250776   -0.728124   -0.494240
O     -3.750001    2.017328    0.896191
H      4.715564   -0.689254   -0.918002
H      3.263535   -1.859271   -1.061564
H      4.667313    0.967491    0.649450
H      3.470937    1.952996   -0.239859
H      3.140807    1.388202    1.483616
H     -0.311613    2.528910    2.032224
H     -1.809371    3.359237    1.379786
H     -0.381092    3.220897    0.342212
H     -0.033349   -0.446879   -2.298487
H     -1.340487   -1.684420   -2.441600
H     -1.742591    0.106022   -2.441187
H      1.309328   -1.757181   -1.224989
H      1.578045   -2.458580    0.390580
H     -2.714911   -0.770434    1.814854
H     -4.353597   -0.524427    1.018499
H     -0.725506   -2.107338    1.064687
H     -0.702645   -2.768720   -0.590569
H     -2.869585   -2.131923   -0.165116
H     -3.322650   -0.707881   -1.145749
H      1.001313    1.723061    0.405766
H      0.901678    1.015365   -1.226435
H      1.444975   -0.318248    1.498720
