26

C      1.339583   -1.402901   -0.355563
C     -2.428130    0.523533    0.047845
C      0.059319   -2.083959    0.085383
C     -1.954083   -0.862647   -0.400143
C      2.016279    0.983200   -0.499917
C      0.859562    0.014243   -0.592117
C     -1.125836    1.265489    0.158039
C     -0.133015    0.192814    0.527448
N     -0.844447   -1.064556    0.517897
O      2.624840    0.943876    0.746702
O     -1.192829    2.271236    1.103661
H      1.786447   -1.847803   -1.244052
H      2.079454   -1.387790    0.475742
H     -2.948284    0.461333    1.019785
H     -3.117746    0.963939   -0.694433
H     -0.322159   -2.650775   -0.811225
H      0.276977   -2.766784    0.930475
H     -1.602991   -0.781360   -1.438183
H     -2.776501   -1.576363   -0.247173
H      1.704842    1.996818   -0.742937
H      2.765545    0.649616   -1.262040
H      0.362870    0.124237   -1.555625
H     -0.891547    1.684677   -0.839094
H      0.326816    0.352236    1.505552
H      3.612661    1.058076    0.643277
H     -0.477627    2.939617    0.976565
