50

C     -2.187263   -0.944534   -1.371568
C     -2.456193   -2.961724   -0.178306
C      6.147469   -0.790931   -0.845075
C     -1.661339    5.197878    0.197787
C      2.398027   -2.286728    0.058863
C      3.634112   -1.786182   -0.239717
C     -3.301393    0.426623    1.020375
C     -3.429192   -1.008494    0.640136
C      0.049045   -2.075150    0.511958
C     -1.888437    2.379278    0.527465
C      1.320552   -1.408836    0.200312
C     -2.005160    1.023696    0.687789
C     -1.096753   -1.192962    0.728669
C      3.822974   -0.437318   -0.400309
C     -0.688029    2.967064    0.215335
C     -0.849201    0.246035    0.521811
C      1.520084   -0.037193    0.035727
C      0.363455    0.838146    0.206342
C      2.752835    0.461316   -0.262025
C      0.470650    2.189286    0.048524
N     -2.271982   -1.541946   -0.052326
O      3.030580    1.771872   -0.436907
O      1.598377    2.853603   -0.256365
O      5.061876    0.105462   -0.703425
O     -0.539011    4.334028    0.047238
I      0.865500    0.000000    0.000000
H     -1.982624   -1.728790   -2.123729
H     -3.135865   -0.438848   -1.635088
H     -1.318117   -0.234010   -1.435879
H     -3.532800   -3.261000   -0.099947
H     -2.114667   -3.327051   -1.168058
H     -1.919573   -3.552284    0.579979
H      7.099113   -0.266734   -1.050391
H      6.225605   -1.474349    0.033629
H      5.909189   -1.447977   -1.717626
H     -2.550717    4.779056   -0.349306
H     -1.485869    6.189407   -0.220311
H     -1.976767    5.273195    1.257326
H      2.246108   -3.353764    0.186510
H      4.473138   -2.459082   -0.350905
H     -3.552111    0.572325    2.111785
H     -4.110051    0.988401    0.476365
H     -4.363263   -1.222194    0.044034
H     -3.564814   -1.619080    1.575518
H     -0.183088   -2.877928   -0.255503
H      0.261522   -2.682238    1.447935
H     -2.771355    3.008752    0.650776
H     -1.434391   -1.281083    1.801308
H      3.985311    2.092989   -0.660729
H     -0.865500    0.000000    0.000000
