50

C     -2.671592   -0.717337    0.449777
C     -3.017226   -1.871504   -1.552228
C      5.356136   -2.929043    1.243918
C     -0.173138    5.141080    2.001751
C      1.691648   -2.737404   -0.704507
C      2.901525   -2.805980   -0.063988
C     -2.752226    1.799185   -1.179885
C     -3.295824    0.450229   -1.503624
C     -0.358441   -1.647509   -1.311619
C     -1.119390    2.875598    0.313534
C      0.917601   -1.580754   -0.599241
C     -1.469921    1.782548   -0.439241
C     -1.124225   -0.402755   -1.363177
C      3.351603   -1.740912    0.678833
C      0.062931    2.892091    1.018862
C     -0.638382    0.672036   -0.504220
C      1.391236   -0.511522    0.157885
C      0.556488    0.684798    0.208079
C      2.591208   -0.565376    0.799750
C      0.904822    1.770426    0.955593
N     -2.510119   -0.646894   -0.976411
O      3.131043    0.433602    1.560152
O      2.032349    1.869443    1.671392
O      4.567519   -1.774799    1.339187
O      0.495481    3.940537    1.797008
I      0.863507    0.000000    0.000000
H     -3.594205   -1.320836    0.640737
H     -1.816657   -1.222574    0.952236
H     -2.817567    0.249396    0.942478
H     -4.091218   -1.775669   -1.818941
H     -2.439614   -2.180018   -2.443915
H     -2.976838   -2.697978   -0.788896
H      5.840621   -3.030951    0.230499
H      4.753902   -3.853773    1.464854
H      6.163558   -2.857515    1.991195
H      0.608184    5.949113    2.065571
H     -0.756023    5.380847    1.086311
H     -0.832318    5.153107    2.892806
H      1.370413   -3.593201   -1.279156
H      3.501090   -3.706673   -0.147421
H     -2.534325    2.354825   -2.133484
H     -3.506573    2.418045   -0.630612
H     -3.363727    0.338187   -2.603050
H     -4.345841    0.387375   -1.100597
H     -0.948337   -2.533669   -0.932290
H     -0.110016   -1.954781   -2.371774
H     -1.755604    3.750147    0.375282
H     -1.205901    0.011778   -2.412825
H      4.035892    0.355032    2.023413
H     -0.863507    0.000000    0.000000
