38

C      3.800168    0.462221   -1.321988
C      3.664462   -0.078661    1.032045
C     -0.951763    2.853404    0.813632
C     -1.560452   -1.639991    1.192179
C      1.161657   -1.561471   -0.231884
C     -3.453694    0.224871   -0.452828
C     -0.221087   -1.715917   -0.832480
C     -2.470843   -0.795238   -0.902799
C      0.792156    0.776513    0.315246
C      3.028337    0.083691   -0.310436
C     -1.482837    1.482408    0.484180
C      1.610101   -0.155155   -0.547080
C     -0.668819    0.472211    0.241781
C     -2.916292    1.268995    0.433295
C     -1.209918   -0.846939   -0.074597
O     -3.701580    1.956937    1.129144
H      4.848672    0.651072   -1.203374
H      3.404314    0.601592   -2.333285
H      4.704413    0.264345    1.028505
H      3.697168   -1.172987    1.309824
H      3.125462    0.441427    1.829834
H     -0.715321    3.418589   -0.104670
H     -1.722083    3.356870    1.404511
H     -0.044868    2.719955    1.433785
H     -2.541140   -1.347505    1.597333
H     -0.775456   -1.529750    1.964271
H     -1.657353   -2.699273    0.860634
H      1.047349   -1.672329    0.875510
H      1.851517   -2.331364   -0.575751
H     -3.949495    0.706881   -1.343243
H     -4.315347   -0.248174    0.103049
H     -0.150490   -1.339578   -1.884862
H     -0.521763   -2.778104   -0.789015
H     -2.981462   -1.779463   -0.922135
H     -2.208429   -0.579297   -1.972215
H      1.159777    0.705280    1.352455
H      0.951727    1.802849   -0.091674
H      1.373212    0.021083   -1.613181
