32

C      0.783235    2.705176    0.442155
C     -3.313368   -1.922050    0.910276
C     -0.194980    1.694157    0.881957
C      3.490686   -1.464863   -0.179944
C      2.478316   -1.993196    0.575337
C      3.234463   -0.316662   -0.869055
C      1.237096   -1.351057    0.615719
C      2.015252    0.324953   -0.836527
C      0.985936   -0.211142   -0.068680
C     -0.842298    0.770708   -1.342361
C     -1.304933   -0.397216    0.723051
C     -2.771588   -0.623389   -1.168923
C     -0.356382    0.474050    0.002003
N     -1.907125    0.257943   -1.814460
N     -2.472352   -1.000268    0.184264
O     -0.194013    1.644982   -2.248024
O     -1.107259   -0.666205    1.971833
O     -3.813927   -1.129650   -1.676972
H      0.642884    3.648180    1.066436
H      0.562676    3.045687   -0.582941
H      1.842546    2.439337    0.629112
H     -2.769305   -2.486343    1.681148
H     -4.074255   -1.289285    1.448774
H     -3.800117   -2.600368    0.178328
H      0.146399    1.295890    1.882896
H     -1.188017    2.151982    1.094594
H      4.463082   -1.953597   -0.221330
H      2.636774   -2.887123    1.127670
H      4.024357    0.123490   -1.477898
H      0.490392   -1.837360    1.218623
H      1.845100    1.221785   -1.390060
H     -0.769274    2.331454   -2.757000
