39

C     -2.590880    0.560737   -1.247936
C     -2.365427    1.126450    1.093107
C      0.737028   -0.851997    1.598795
C     -1.296023   -2.274984   -0.103742
C      1.589917    1.933626    0.388000
C      0.114235    1.754595    0.448676
C     -2.142676   -1.179609    0.404718
C      0.057602   -1.891960   -0.579297
C      3.670152    0.949587   -0.977784
C      2.324242    0.879185   -0.306590
C     -0.351603    0.469444   -0.234489
C      1.903568   -0.346515   -0.458338
C      2.880394   -1.141156   -1.199650
C     -1.786387    0.197889    0.011194
C      0.561196   -0.680081    0.132132
O      2.805425   -2.353117   -1.525141
O      3.933143   -0.315868   -1.493402
H     -2.221972   -0.064367   -2.061383
H     -3.666090    0.455438   -1.027189
H     -2.388467    1.650859   -1.459403
H     -3.473761    0.994654    1.012068
H     -2.142965    2.173914    0.892728
H     -2.076936    0.772523    2.091996
H      0.108905   -1.707085    1.954668
H      1.795861   -1.182810    1.796392
H      0.520148    0.029027    2.204841
H     -1.805509   -2.827279   -0.947639
H     -1.162561   -3.070963    0.685566
H      1.845729    2.935705   -0.059194
H      2.011736    1.995277    1.432867
H     -0.379246    2.581147   -0.112842
H     -0.232423    1.791839    1.501457
H     -2.210121   -1.254336    1.528815
H     -3.203513   -1.377332    0.066851
H     -0.011752   -1.641094   -1.662303
H      0.742889   -2.758727   -0.483830
H      3.630573    1.754393   -1.739057
H      4.448911    1.265533   -0.241921
H     -0.173343    0.647459   -1.323740
