36

C     -3.460557    0.795591    1.241001
C     -4.370106   -1.059730   -0.101718
C      2.069308    2.798667   -0.012384
C      4.867214   -0.892546   -0.192265
C      4.539647   -2.139840    0.292687
C      3.835434   -0.014609   -0.443331
C      3.226461   -2.489440    0.515958
C     -1.088893    0.850949   -0.412384
C      2.500718   -0.368618   -0.216890
C      0.191229    0.115001   -0.230696
C      2.169431   -1.615950    0.268343
C     -2.072440   -0.322241   -0.514543
C      1.480481    0.528236   -0.475801
C     -0.119876   -1.135050    0.254142
C     -3.447287    0.150847   -0.105452
N      0.893971   -1.991687    0.498602
O     -3.948962    1.045254   -1.041880
O      1.823607    1.775797   -0.961980
O     -1.512847   -1.225091    0.387206
H     -2.928760    0.205475    2.010666
H     -3.151470    1.857162    1.203827
H     -4.536721    0.818409    1.582489
H     -4.306786   -1.600166   -1.067073
H     -4.064289   -1.761205    0.699175
H     -5.436108   -0.737260    0.063044
H      1.116457    3.297151    0.215978
H      2.831470    3.503847   -0.394069
H      2.494474    2.359986    0.919708
H      5.897611   -0.608387   -0.371122
H      5.335975   -2.856771    0.501021
H      4.058836    0.979117   -0.827004
H      2.937356   -3.467360    0.898490
H     -1.287519    1.409684    0.503000
H     -1.111284    1.451520   -1.337141
H     -2.080690   -0.764239   -1.522359
H     -3.345085    1.107499   -1.827245
