55

C      6.204318    0.558079    0.001966
C     -2.409541   -4.371317    0.454445
C     -3.586390    3.031533    0.531443
C     -1.467809   -3.619019    1.105484
C     -3.063426   -3.843630   -0.637390
C     -2.078936    3.038309    0.363757
C     -4.070465    1.665376    0.997570
C     -1.193587   -2.348415    0.654346
C     -2.781719   -2.570050   -1.081648
C     -1.748796    1.972569   -0.660787
C     -3.618449    0.575379    0.047689
C      2.985097   -1.226511    0.335384
C      2.630581    1.130448    0.822829
C      4.404876   -0.916050   -0.154242
C      4.076892    1.390881    0.456866
C     -1.829777   -1.795911   -0.432028
C     -2.113314    0.630011   -0.023431
C      2.151832   -0.008137   -0.024630
C     -0.089924   -0.189486   -1.029554
C     -1.546791   -0.436602   -0.934799
N      4.899223    0.213754    0.582910
O      0.425428    0.087599   -2.152433
O     -2.102932   -0.264258   -2.212519
O      0.784863   -0.235308    0.033142
Cl     0.687811    0.000000    0.000000
H      6.597869    1.491084    0.428797
H      6.121057    0.625846   -1.108771
H      6.900412   -0.253514    0.243074
H     -2.601431   -5.370788    0.837359
H     -4.015328    3.285663   -0.460982
H     -3.837751    3.750863    1.322572
H     -0.927465   -3.987453    1.966514
H     -3.801627   -4.484800   -1.116263
H     -1.566185    2.772258    1.295750
H     -1.808149    4.050638   -0.011205
H     -3.533551    1.470162    1.967382
H     -5.152345    1.725936    1.109355
H     -0.434618   -1.786599    1.212304
H     -3.329593   -2.221661   -1.939339
H     -2.407989    2.126588   -1.528896
H     -0.674479    1.993931   -0.941366
H     -4.008780   -0.372566    0.431656
H     -4.063324    0.827235   -0.955701
H      2.594191   -2.151369   -0.102733
H      3.047517   -1.253837    1.447456
H      2.645987    0.820535    1.908189
H      2.077818    2.073111    0.668300
H      4.337406   -0.588725   -1.231301
H      5.086818   -1.757026   -0.005324
H      4.070035    1.792191   -0.592992
H      4.531183    2.176250    1.092202
H     -1.689155    0.548236    0.977212
H      2.408672    0.219373   -1.098290
H     -1.428444    0.009197   -2.859326
H     -0.687811    0.000000    0.000000
