30

C      7.223363    3.517290   -1.023510
C      6.085045    3.177063   -0.905628
C      4.793616    2.777893   -0.790461
C      4.133223    2.564718   -0.722571
C      2.946101    2.176020   -0.595115
C      1.656857    1.771407   -0.461835
C      0.292734    1.351968   -0.296978
C     -0.797245    1.007355   -0.172603
C     -3.264561   -3.090381   -0.319802
C     -4.016749   -2.137186    0.646069
C     -0.659070   -0.267846    0.807434
C     -1.763253   -2.838892    0.034267
C     -3.191120   -0.788825    0.343035
C     -1.897205   -0.891243    1.132799
O     -4.053364    0.213612    0.935185
O     -1.655112   -2.314113    1.360583
H      8.004488    2.597465   -0.735218
H      7.788069    4.070655   -1.847660
H      7.536269    4.174510   -0.015080
H     -1.832503    0.933648   -0.232251
H     -3.373903   -3.055081   -1.377860
H     -3.528477   -4.111023    0.120972
H     -3.577571   -2.453383    1.665886
H     -4.968662   -1.957753    0.604326
H      0.268519   -0.508014    1.075534
H     -1.147671   -3.681283   -0.159254
H     -1.448836   -2.030625   -0.704536
H     -3.155643   -0.671764   -0.719958
H     -2.222374   -0.436178    2.144332
H     -4.174964    0.899988    0.209896
