63

C      4.811949    0.196780   -1.243411
C      2.211072   -3.291274    0.807206
C      3.680437   -3.122700    0.988948
C      1.153277   -3.311407    1.548899
C     -4.683249    2.136960    0.122289
C      1.103382    2.767190   -1.071437
C      4.166512   -1.960902    0.077186
C     -0.328510   -3.487004    1.317039
C     -4.039676    2.243082    1.409541
C      0.649381    2.826111    0.124162
C     -4.433498    1.221547   -0.781074
C      2.257452    3.389934   -1.775144
C      3.123400   -0.846294    0.250657
C     -2.780609    2.590294    1.602914
C     -0.533273    2.178354    0.821327
C     -1.188574   -2.998144    0.494145
C     -3.443915    0.138903   -0.620625
C      3.516237    3.413219   -1.384187
C     -3.089693   -2.247787   -0.955099
C      3.442682    0.358656   -0.575435
C     -1.826322    2.931653    0.514431
C     -2.661709   -3.146018    0.233317
C     -4.120316   -1.228990   -0.535443
C      3.875541    2.768881   -0.126251
O     -1.488279    4.294407    0.562204
O     -3.132956   -4.380003   -0.107768
O     -5.253378   -1.232724   -1.313745
O      4.605024    3.400416    0.714765
O      3.473455    1.502696    0.220278
H      4.842644   -0.699530   -1.894721
H      5.637970    0.229353   -0.512716
H      4.934859    1.115013   -1.877400
H      2.186445   -3.426823   -0.362832
H      4.160278   -2.948211    1.911719
H      4.231837   -4.031973    0.559496
H      1.219965   -3.184709    2.712802
H     -5.472661    2.856570   -0.124645
H      0.624249    2.158019   -1.941546
H      4.170102   -2.360728   -0.935805
H      5.151748   -1.594745    0.407969
H     -0.637005   -4.258716    2.142921
H     -4.614888    2.051680    2.347489
H      1.060746    3.449237    1.001868
H     -4.989707    1.254925   -1.721739
H      2.111934    3.900162   -2.769931
H      2.153669   -1.256905   -0.030960
H      3.164218   -0.548901    1.334024
H     -2.426700    2.620776    2.648816
H     -0.653456    1.116966    0.756911
H     -0.429448    2.335559    1.955016
H     -0.933676   -2.227516   -0.341731
H     -2.795214    0.113574   -1.508927
H     -2.822462    0.223470    0.268587
H      4.283932    3.910528   -1.974248
H     -3.509974   -2.848138   -1.782917
H     -2.175135   -1.774838   -1.373770
H      2.725129    0.402900   -1.422468
H     -2.142143    2.640796   -0.485033
H     -3.302027   -2.754097    1.064991
H     -4.461014   -1.426742    0.520941
H     -1.818310    4.636106    1.430608
H     -3.336570   -4.882425    0.735457
H     -5.205178   -1.896471   -2.057914
