37

C      7.179415    0.513504    1.703968
C     -4.962625   -1.028282   -1.759103
C      5.876251    0.052077    1.145455
C      4.735729    0.643047    1.406370
C      3.506108    0.139539    0.828038
C      2.341896    0.715321    1.073673
C     -0.075013    0.789832    0.738929
C     -2.620998    0.975391    0.467115
C     -0.026373   -1.432521   -0.928275
C     -1.337674    0.283376    0.153051
C      1.092736    0.228908    0.505070
C     -1.315051   -0.768006   -0.635650
C     -3.833936    0.235882    0.035651
C     -2.550448   -1.312514   -1.242169
C     -3.670302   -0.349304   -1.376136
O     -4.927024    1.100287    0.061185
O     -2.594027   -2.500206   -1.597094
O     -3.384056    0.690363   -2.235842
O      1.088497   -0.875204   -0.327700
H      7.172181    1.615746    1.899614
H      7.420081   -0.082236    2.592988
H      8.017231    0.342076    0.970166
H     -5.207969   -0.846892   -2.842863
H     -5.776933   -0.522762   -1.191270
H     -4.906371   -2.107675   -1.525490
H      5.921182   -0.821749    0.494182
H      4.703295    1.500528    2.047354
H      3.469459   -0.724687    0.170789
H      2.362088    1.577866    1.726974
H     -0.098582    1.660960    1.391603
H     -2.620028    2.029221    0.091628
H     -2.655738    1.065485    1.588734
H      0.086886   -1.556266   -2.036302
H     -0.128020   -2.486334   -0.535900
H     -3.997722   -0.650667    0.696009
H     -5.689913    0.721028    0.533327
H     -2.594232    1.184867   -1.952854
