63

C      2.608315   -0.198034    1.689263
C      2.393226   -2.842142   -0.760356
C      3.796158   -2.479700   -1.103428
C      1.254998   -2.926205   -1.356865
C     -4.941412    1.540524    0.276537
C      1.756982    2.323259   -2.236379
C      4.309061   -1.429891   -0.071406
C     -0.149937   -3.303348   -0.949191
C     -3.792536    2.212812   -0.352522
C      0.731650    2.819967   -1.656977
C     -4.981137    0.460507    1.025542
C      3.203591    2.682544   -2.264365
C      3.881685   -0.042360   -0.480266
C     -2.646175    2.638387    0.051046
C     -0.739741    2.451860   -1.628724
C     -0.928077   -2.973374    0.029508
C     -3.658748   -0.195597    1.284606
C      3.993235    2.882308   -1.222800
C     -2.714494   -2.489119    1.711790
C      2.643526    0.394354    0.292102
C     -1.491475    3.321952   -0.613750
C     -2.320180   -3.323979    0.463950
C     -3.959851   -1.688906    1.491963
C      3.453319    2.751031    0.123734
O     -1.757412    4.588807   -1.106123
O     -2.539394   -4.624920    0.853709
O     -4.763806   -1.821222    2.642156
O      3.843591    3.579597    0.977900
O      2.573415    1.782044    0.438956
H      2.083804   -1.167087    1.729422
H      1.972353    0.488452    2.324058
H      3.597069   -0.193827    2.179120
H      2.562074   -3.085254    0.377290
H      4.106604   -2.095610   -2.034406
H      4.488148   -3.362526   -0.873920
H      1.145527   -2.695879   -2.502218
H     -5.991393    1.931727    0.131383
H      1.761472    1.405820   -2.954588
H      5.392052   -1.458458   -0.015690
H      3.840832   -1.739030    0.873335
H     -0.478447   -4.049358   -1.792468
H     -4.178115    2.315767   -1.452458
H      0.697321    3.753772   -0.978564
H     -5.876084    0.020682    1.465168
H      3.746156    2.788599   -3.243621
H      4.709093    0.678260   -0.372600
H      3.666543   -0.097099   -1.581937
H     -2.248239    2.567243    1.138384
H     -1.269429    2.710997   -2.569739
H     -0.984978    1.428572   -1.371361
H     -0.641643   -2.242390    0.884433
H     -3.063986   -0.142352    0.370902
H     -3.179760    0.155218    2.195754
H      5.035190    3.151165   -1.410552
H     -1.873421   -1.759753    1.901478
H     -2.737516   -3.115223    2.623442
H      1.778668   -0.051467   -0.241874
H     -0.677671    3.545625    0.167274
H     -3.114852   -3.046592   -0.257774
H     -4.581357   -2.060807    0.652000
H     -1.919308    5.170059   -0.316836
H     -2.136542   -4.851212    1.721096
H     -4.688544   -0.989192    3.176959
