34

C      5.312856    0.702532    1.461900
C     -3.102810    1.659127   -0.012338
C     -3.707752   -0.529993    0.883465
C      3.850492    0.570433    1.199675
C      3.348211    0.334596    0.013121
C      1.555101   -0.053553   -1.583037
C     -1.806126   -1.765171   -1.216584
C      1.936694    0.195192   -0.311683
C     -2.251845   -0.357769   -1.079273
C      0.123252   -0.187179   -1.864409
C      0.852048    0.312566    0.636753
C     -2.579738    0.241265    0.241170
C     -0.798754   -0.770771   -0.863760
C     -0.442395   -0.419535    0.541718
O     -0.263756    0.217564   -2.987969
O      0.993211    1.081925    1.615953
O     -0.313686   -1.543062    1.372060
O     -1.468423    0.345094    1.017717
H      5.621128    1.752779    1.573867
H      5.848319    0.307403    0.561082
H      5.632622    0.053547    2.308747
H     -2.938076    2.280771    0.887037
H     -4.172968    1.629042   -0.274706
H     -2.520548    2.057484   -0.870613
H     -4.115286    0.064401    1.714026
H     -4.502381   -0.665155    0.118641
H     -3.392486   -1.544058    1.205135
H      3.180587    0.671242    2.032123
H      4.068802    0.236397   -0.800994
H      2.325724   -0.142176   -2.331816
H     -2.171210   -2.461896   -0.440738
H     -1.796480   -2.195947   -2.227152
H     -2.523437    0.171203   -2.000423
H      0.219111   -2.248297    0.976257
