48

C     -0.271766   -0.298905    1.309447
C     -5.332659    1.445682   -1.255631
C     -6.841001   -0.090886   -0.063456
C     -2.163398   -1.382455    0.017590
C      4.968783    0.980642    1.724971
C      7.209955    0.984771    0.905275
C      3.637985    0.614399    1.543548
C     -3.031777   -0.140506    0.025129
C      8.119862    0.635803   -0.071529
C      0.074117   -1.407730   -0.854844
C      1.515541   -1.118448   -0.855637
C      4.204746   -0.401494   -0.531487
C     -0.711843   -1.035836    0.118367
C      5.893459    0.635328    0.749431
C      3.250022   -0.076285    0.418218
C      5.526018   -0.057114   -0.386702
C     -4.462106   -0.595226   -0.079478
C      7.679336   -0.053020   -1.174040
C     -5.446966    0.535312   -0.083928
O     -4.594961   -1.324159   -1.244691
O      8.494737   -0.382865   -2.080843
O     -5.320878    1.283646    1.096630
O      1.914742   -0.415939    0.287283
O      6.414932   -0.370120   -1.289706
H      0.115817    0.718296    1.058353
H     -1.152968   -0.098902    2.004736
H      0.421968   -0.891701    1.917660
H     -6.246909    1.363513   -1.909626
H     -5.322258    2.521625   -0.937718
H     -4.473440    1.270162   -1.907139
H     -6.782412   -0.965615   -0.753512
H     -7.624810    0.616876   -0.329044
H     -6.956966   -0.529902    0.957800
H     -2.434506   -2.009258    0.893501
H     -2.351911   -1.972953   -0.898936
H      5.243267    1.522489    2.618829
H      7.519217    1.528898    1.790485
H      2.911647    0.883609    2.306105
H     -2.715079    0.461398   -0.859806
H     -2.822554    0.416457    0.951934
H      9.182643    0.912616    0.044584
H     -0.335746   -1.966158   -1.729213
H      2.124159   -2.059564   -0.918811
H      1.813535   -0.489005   -1.743647
H      3.885787   -0.944651   -1.411331
H     -4.672295   -1.219960    0.812883
H     -4.041816   -0.862141   -1.948555
H     -6.011247    1.030757    1.766551
