48

C     -1.585023   -2.077058   -0.161585
C     -5.607721   -0.741403    1.162707
C     -5.477184    1.405273   -0.100762
C     -1.787126    0.359124   -0.970983
C      4.604195    0.924338   -1.196502
C      6.568949    1.801978   -0.144694
C      3.513171    0.081271   -1.238783
C     -2.381257    1.020654    0.205500
C      7.414278    1.775636    0.923078
C      0.292280   -0.810434   -1.112369
C      1.174848   -1.947645   -0.944621
C      4.169870   -0.779424    0.871994
C     -1.006437   -0.879002   -0.740450
C      5.487458    0.932006   -0.133933
C      3.268616   -0.788157   -0.210237
C      5.249193    0.061909    0.902133
C     -3.464324    0.362131    0.952637
C      7.141137    0.887667    1.943945
C     -4.736977    0.110277    0.219557
O     -3.788114    1.145521    2.077927
O      7.941121    0.884116    2.921855
O     -4.661740   -0.598248   -0.951452
O      2.245560   -1.659568   -0.121376
O      6.106162    0.081757    1.913666
H     -1.230801   -3.032433   -0.624816
H     -2.672459   -2.104842   -0.312871
H     -1.397884   -2.134179    0.934377
H     -6.512271   -1.015648    0.598703
H     -5.020918   -1.671186    1.331192
H     -5.863604   -0.200428    2.077080
H     -5.632425    2.019188    0.807438
H     -4.825263    1.946828   -0.833609
H     -6.412509    1.129713   -0.605065
H     -2.559735    0.074313   -1.741076
H     -1.189692    1.151539   -1.516281
H      4.753539    1.597587   -2.040727
H      6.694171    2.459215   -0.993841
H      2.878270    0.121886   -2.098418
H     -2.703294    2.089295   -0.032454
H     -1.538282    1.194898    0.947204
H      8.259918    2.443005    0.934281
H      0.639299    0.107418   -1.531413
H      0.704463   -2.926015   -0.724084
H      1.635194   -2.139912   -1.976220
H      4.028753   -1.447574    1.718444
H     -3.139676   -0.607160    1.395803
H     -4.128986    0.580097    2.814286
H     -5.446741   -1.188326   -1.071953
