67

C      7.152754   -0.210625    0.002962
C      3.845949    1.317862    0.066201
C      5.955904   -0.107801    0.093329
C     -2.649269   -2.627291    0.667256
C     -2.265536   -2.667470   -0.785209
C     -1.731209   -1.739046    1.477720
C     -1.823862    2.855990    1.076332
C     -2.810084    3.362015    0.256937
C      3.770487   -1.073200    0.421833
C     -2.321811   -1.241242   -1.302637
C     -0.085478   -0.248806   -1.589592
C      2.345770   -1.220958    0.556564
C      1.171541    0.259266   -0.967600
C     -0.260874    1.043632    1.631957
C     -2.773992    1.432435   -1.118103
C      4.484585   -0.006821    0.206300
C     -1.306675    1.586318    0.767452
C     -3.292806    2.670970   -0.834349
C     -0.698658   -1.188658    0.560953
C     -1.771763    0.885784   -0.309475
C      0.295766   -0.266155    1.218799
C     -1.222850   -0.444550   -0.625029
N      1.434313   -0.187617    0.358138
O     -4.290219    3.185204   -1.661049
C     -0.597728    0.663204   -0.526526
C      0.667440   -0.135000   -0.851101
C     -1.430381   -0.048135    0.470550
C      1.507438   -0.298515    0.361425
O     -0.192781    1.906074   -0.038821
O      0.332941   -1.393012   -1.345309
O     -1.708455    0.446761    1.597988
O     -1.919244   -1.305764    0.144861
O      1.840134   -1.416471    0.832519
O      1.971617    0.827974    1.042045
H      8.202037   -0.311527   -0.075578
H      3.005970    1.495365    0.755816
H      4.681871    2.064938    0.327088
H      3.651363    1.555907   -0.995428
H     -2.759179   -3.637669    1.072098
H     -3.662140   -2.149606    0.715584
H     -1.330368   -3.178577   -1.007213
H     -3.076033   -3.221609   -1.319379
H     -1.200535   -2.422214    2.195690
H     -2.256932   -0.996426    2.085542
H     -1.440532    3.395830    1.936455
H     -3.231305    4.343559    0.469582
H      4.397871   -2.015800    0.512802
H     -3.333431   -0.860109   -0.976658
H     -2.298357   -1.175344   -2.389322
H      0.069200   -1.199519   -2.140377
H     -0.431103    0.495303   -2.347345
H      2.028525   -2.072053   -0.154643
H      2.069540   -1.707586    1.567100
H      1.173233    1.365797   -0.984560
H      2.000450   -0.075958   -1.622354
H     -0.660891    1.014294    2.668689
H      0.580747    1.777380    1.649492
H     -3.165741    0.902497   -1.981667
H     -0.102004   -2.053862    0.167326
H      0.635060   -0.801007    2.153424
H     -4.699299    4.098761   -1.483520
H     -1.213760    0.787837   -1.433976
H      1.198493    0.397905   -1.660403
H     -0.962379    2.430957    0.293791
H      0.227183   -2.003108   -0.550735
H     -2.639217   -1.718010    0.741741
H      2.918700    0.857303    1.432663
