53

C     -6.132915    1.592190    2.008078
C     -6.029708    0.136121    1.682623
C     -4.656137   -0.275974    1.194852
C      2.017662    1.622656   -1.487419
C      2.967962    0.584320   -1.957492
C      0.661345    1.069743   -1.171862
C      3.281822   -0.487256   -0.954166
C      0.092139    0.472008   -2.398018
C      3.901453    0.135225    0.301180
C     -4.236641    0.433230   -0.045906
C     -0.302323   -0.763660   -2.449438
C      4.218779   -0.980106    1.295471
C     -2.860392   -0.029057   -0.460535
C     -0.286358   -1.770346   -1.397521
C      4.831017   -0.368713    2.554770
C     -2.812343   -1.486084   -0.754202
C     -1.697037   -2.264630   -1.161633
C      6.071759    0.364653    2.268276
O      7.145111   -0.259011    2.071060
O      6.094452    1.739264    2.208520
O     -2.608137   -1.773379   -2.223957
H     -6.135237    2.200320    1.086189
H     -7.138946    1.725776    2.503456
H     -5.308519    1.867814    2.699010
H     -6.267772   -0.510541    2.552044
H     -6.811624   -0.087627    0.911185
H     -3.947159    0.018244    2.012485
H     -4.647652   -1.358047    1.135472
H      1.921275    2.470349   -2.237393
H      2.407565    2.091716   -0.534310
H      2.579540    0.074339   -2.893820
H      3.933683    1.108029   -2.227107
H      0.790575    0.339648   -0.362968
H     -0.014950    1.885849   -0.771177
H      4.078301   -1.166712   -1.391523
H      2.438253   -1.124240   -0.684902
H      0.009699    1.136915   -3.309263
H      4.817564    0.679574    0.022591
H      3.137459    0.773723    0.804316
H     -4.930952    0.119905   -0.865379
H     -4.281118    1.528708    0.031420
H     -0.706327   -1.095540   -3.430409
H      3.286689   -1.477628    1.602284
H      4.977769   -1.648441    0.861507
H     -2.599640    0.582622   -1.360470
H     -2.141476    0.291741    0.323486
H      0.329640   -2.652890   -1.756928
H      0.190793   -1.484281   -0.441215
H      4.093330    0.353346    3.001984
H      4.947055   -1.191074    3.276431
H     -3.753407   -2.026757   -0.515431
H     -1.757552   -3.372319   -1.030839
H      6.841631    2.256285    1.732557
