31

C      2.115164   -1.968512    0.818463
C     -1.480560   -0.338691   -2.028060
C     -1.430021   -1.179982    0.821883
C      2.344639   -0.511215    0.737106
C      0.786267   -0.279136   -1.101798
C     -0.584499    0.298765   -0.994568
C      1.752369    0.279365   -0.127904
C      2.035005    1.707633   -0.144470
C     -2.539271    0.895241    0.302026
C     -1.184624    0.247949    0.385483
O      1.501975    2.503970   -0.944143
O      2.946847    2.251019    0.769794
O     -3.376301    0.423194   -0.503663
O     -2.880557    1.992287    1.088709
O     -0.467693    0.934627    1.323797
H      2.968808   -2.392890    1.427258
H      1.210532   -2.216715    1.384778
H      2.191976   -2.486783   -0.158207
H     -2.032156   -1.209417   -1.627486
H     -2.152773    0.413540   -2.492793
H     -0.827978   -0.729070   -2.835379
H     -0.835689   -1.863942    0.183309
H     -2.506569   -1.447797    0.839394
H     -1.076070   -1.272312    1.868291
H      3.044032   -0.017512    1.422478
H      1.176152    0.037809   -2.115926
H      0.799521   -1.383143   -1.138360
H     -0.512274    1.385782   -1.290958
H      3.347310    3.175045    0.605220
H     -3.841991    2.172363    1.299017
H     -0.491569    0.578529    2.226708
