54

C      3.280195    0.584770    1.583609
C     -1.024848   -1.957709   -0.094983
C      8.142738    1.200976   -0.494405
C     -4.447526    2.006894   -1.550229
C      0.654362    0.708922    0.681358
C      4.910545   -0.787963   -0.843593
C      1.580956   -0.239843    0.074548
C      3.724952   -1.292259   -0.116813
C     -0.503597    0.138994    1.414716
C      5.890261    0.022967   -0.075666
C     -5.752957   -0.118692    0.440789
C     -7.010334    0.641584    0.295893
C     -2.704874   -0.341874    0.425449
C      2.840286   -0.309367    0.495844
C     -1.406169   -0.687731    0.592124
C      7.024729    0.389379   -1.008275
C     -4.301835    0.721975   -1.461856
C     -4.899651   -0.359334   -0.703671
C     -3.635303   -1.168924   -0.371030
C     -3.282240    0.002413   -2.288739
O     -7.898029    0.026711   -0.621380
O      6.981467    0.007958   -2.141491
O     -2.693350    0.414182   -3.315919
O     -3.092284   -1.249955   -1.699687
H      3.408383    1.630197    1.268080
H      4.232300    0.251036    2.072316
H      2.533902    0.521641    2.433836
H     -0.136104   -2.395652    0.397081
H     -1.880836   -2.705061    0.009458
H     -0.875201   -1.737148   -1.161016
H      9.128755    0.792146   -0.836219
H      8.103559    2.251454   -0.879688
H      8.184130    1.258735    0.597882
H     -3.825782    2.575898   -2.241320
H     -5.147701    2.604752   -0.986489
H      1.202112    1.479637    1.303105
H      0.239432    1.354733   -0.168042
H      5.464610   -1.705843   -1.219168
H      4.622129   -0.263722   -1.794338
H      1.263641   -0.883485   -0.727095
H      4.099389   -2.016281    0.660980
H      3.169668   -1.966799   -0.843542
H     -1.111114    1.006162    1.810007
H     -0.205699   -0.407924    2.343614
H      5.447574    1.002124    0.243808
H      6.297927   -0.547189    0.772935
H     -6.030239   -1.110959    0.913196
H     -5.141957    0.366169    1.263998
H     -6.951076    1.718073    0.190146
H     -7.566860    0.494455    1.282189
H     -3.007198    0.575375    0.913625
H     -5.427218   -1.027416   -1.458439
H     -3.863903   -2.143591    0.050162
H     -8.604116    0.674408   -0.803593
