34

C      2.459793   -1.074494   -0.255414
C      1.470158   -1.071814   -1.122801
C      2.625336   -0.077372    0.799851
C      0.374702   -0.067853   -1.169649
C     -3.138287   -0.756699   -0.092814
C     -2.410534   -1.955994    0.470884
C      3.974738    0.600788    0.553767
C     -2.045062    1.416948   -0.681317
C     -2.150685   -0.031133   -0.984635
C     -0.911663   -0.830842   -0.975918
C     -0.981692   -1.576682    0.300345
C     -1.631993    1.774737    0.670919
O      4.171791    1.571651    1.553057
O     -0.078085   -1.850078    1.086173
O     -1.431173    0.876394    1.522022
O     -1.443761    3.086540    1.079733
H      3.230429   -1.871685   -0.305325
H      1.501993   -1.904354   -1.854245
H      2.652241   -0.613511    1.794217
H      1.886299    0.697507    0.902466
H      0.465864    0.706774   -0.420762
H      0.413195    0.349668   -2.213320
H     -3.473918   -0.107084    0.742030
H     -4.046868   -1.090498   -0.612318
H     -2.594599   -2.864521   -0.136600
H     -2.646416   -2.123008    1.542313
H      3.955713    1.075316   -0.442573
H      4.801964   -0.135981    0.564832
H     -1.438601    1.912713   -1.469493
H     -3.080211    1.847027   -0.825582
H     -2.603189   -0.100621   -2.017235
H     -0.984232   -1.609795   -1.782456
H      4.005640    2.468493    1.166878
H     -0.898887    3.329465    1.917091
