76

C      2.150666   -1.085424    2.102326
C     -3.025117   -3.178267    1.416227
C     -4.213169    0.625542   -2.669116
C     -6.044009    1.107532   -1.152835
C     -3.026505   -0.819522    2.478365
C      5.594968   -2.463620    1.118034
C      7.464394    1.496102   -3.338880
C     -3.536017    2.577290    0.429745
C     -2.435048    1.606825    0.780049
C      0.205284   -0.455065    0.566555
C     -2.707244   -2.140192   -0.760209
C      2.207342    0.954428    0.804246
C     -3.963104    2.353491   -0.978844
C     -0.762910   -0.505224    1.677333
C     -4.019117   -1.429149   -0.873954
C      3.540168    1.394047    1.260387
C      7.252362   -0.477916   -1.968943
C      4.476913    2.739454   -0.544898
C      1.567997   -0.126781    1.151220
C     -2.174899   -2.197208    0.639126
C     -2.623984    0.243054    0.239360
C      5.331645    0.770069   -0.438202
C      5.721350   -0.510708   -0.163402
C      5.928024    1.412002   -1.498582
C     -4.514307    0.984107   -1.227364
C     -2.193245   -0.812669    1.215477
C     -4.017032   -0.053444   -0.257454
N      5.180876   -1.104498    0.827084
N      6.672318   -1.104435   -0.935482
N      5.374272    2.632477   -1.535986
N      6.877726    0.781887   -2.248261
N      4.446845    1.581129    0.140905
O     -4.853237   -0.090406    0.849853
H      2.688705   -1.923040    1.574934
H      1.394397   -1.629181    2.728365
H      2.777956   -0.560959    2.845123
H     -4.092356   -3.104050    1.216635
H     -2.762617   -3.196703    2.503316
H     -2.716359   -4.201374    1.045293
H     -5.064517    0.060097   -3.131250
H     -4.152432    1.570330   -3.255473
H     -3.242955    0.121736   -2.796142
H     -6.512151    0.120046   -0.944491
H     -6.358666    1.904012   -0.469905
H     -6.449106    1.401316   -2.166017
H     -2.387391   -1.175381    3.340166
H     -3.386839    0.173175    2.774130
H     -3.882689   -1.493503    2.445693
H      4.701971   -3.113660    0.983608
H      5.936559   -2.532760    2.183832
H      6.439115   -2.787146    0.479169
H      6.647589    1.799651   -4.029357
H      8.236938    0.895920   -3.828580
H      7.936921    2.428855   -2.920440
H     -3.110497    3.618757    0.483698
H     -4.371021    2.570189    1.154703
H     -1.481959    2.063137    0.377765
H     -2.316833    1.663988    1.888389
H      0.017086    0.283156   -0.205478
H      0.376115   -1.424751    0.052137
H     -2.879552   -3.194534   -1.086915
H     -1.944671   -1.744282   -1.488139
H      1.657496    1.604491    0.076530
H     -3.073188    2.508238   -1.632869
H     -4.719598    3.146939   -1.230024
H     -0.490464   -1.286999    2.397954
H     -0.714232    0.457593    2.231738
H     -4.290451   -1.411632   -1.953671
H     -4.802538   -2.094038   -0.404203
H      3.940010    0.744901    2.026411
H      3.387858    2.394250    1.768940
H      8.011220   -1.004783   -2.555072
H      3.876195    3.636621   -0.345076
H     -1.156111   -2.645023    0.593165
H     -1.957517    0.120399   -0.661975
H     -5.593627    0.531093    0.829503
