55

C      4.455579   -0.186575   -1.931307
C      0.521673    3.443781    2.050077
C     -0.875974   -3.911285    0.194376
C     -3.382113   -0.463170   -1.923546
C     -4.072006    0.196410    0.359639
C      2.703053    2.436545    0.619641
C      2.302298   -1.419910    0.265235
C      3.499669    1.574207   -0.341303
C      2.304869   -0.604862   -1.045521
C      1.475592    3.063677   -0.060626
C      1.186696   -2.416317    0.144693
C     -0.776863    1.907445    0.463383
C     -0.855712   -1.976222    1.638991
C     -1.346573    1.054208   -0.635524
C     -1.327219   -0.624993    1.239873
C      3.419756    0.453387   -0.979070
C      0.225860    2.667346    0.737669
C      0.013546   -2.703256    0.603162
C     -1.653829   -0.374126   -0.177857
C     -3.128032   -0.634409   -0.409204
O     -3.425722   -1.972058   -0.144347
H      3.941275   -0.337538   -2.936686
H      4.588494   -1.256402   -1.535058
H      5.405508    0.153034   -2.118822
H      1.335835    4.226263    1.807671
H      1.014732    2.828422    2.794651
H     -0.227297    4.064405    2.472748
H     -1.337203   -3.893657   -0.760523
H     -0.455224   -4.877572    0.524384
H     -1.807527   -3.888765    0.880247
H     -4.000579   -1.292284   -2.318009
H     -3.960396    0.500632   -2.039701
H     -2.436426   -0.436067   -2.487628
H     -3.762346    0.639776    1.289124
H     -4.415065    1.038617   -0.306006
H     -5.031238   -0.358614    0.592965
H      2.364067    1.980850    1.536981
H      3.331920    3.300988    1.015316
H      3.311184   -1.919130    0.382868
H      2.315002   -0.654318    1.008271
H      4.422602    2.301146   -0.433395
H      2.454555   -1.310425   -1.904710
H      1.295870   -0.290054   -1.191969
H      1.571781    2.866720   -1.087630
H      1.599014    4.203250   -0.011966
H      1.739315   -3.049595   -0.701849
H     -1.655860    1.678601    1.236007
H     -1.801066   -2.555206    1.850348
H     -0.442140   -1.909507    2.644607
H     -0.871302    0.973578   -1.585879
H     -2.362017    1.532986   -0.900193
H     -0.475179    0.089220    1.493754
H     -2.131466   -0.330707    1.926538
H     -1.081145   -1.052791   -0.877536
H     -3.702226   -2.475676   -0.927355
