34

C     -1.096242   -1.120597    1.583989
C      2.500802   -2.578176   -0.924014
C      1.885998   -1.720210   -1.809396
C      2.689097   -2.138095    0.367597
C      1.476140   -0.462553   -1.404028
C      2.275223   -0.882319    0.757303
C      1.232032    1.295419    0.362714
C     -2.182812    1.994869    0.658587
C     -1.768111   -0.468026   -1.863465
C     -1.711170   -2.150969   -0.556708
C      1.647773    0.002841   -0.131292
C      0.064293    1.853324    0.278869
C     -1.166734    1.387694   -0.308045
C     -1.407282    0.009457   -0.593153
C     -0.306900    3.217977    0.767152
N     -1.951201   -1.794877   -1.826742
N     -1.571084    3.252781    0.965331
N     -1.381788   -1.058617    0.193265
O      0.656888    4.228031    0.945663
H     -0.320080   -0.436669    1.955784
H     -2.035108   -1.049039    2.218032
H     -0.711649   -2.151322    1.859117
H      2.827266   -3.569655   -1.231671
H      1.739677   -2.064566   -2.816633
H      3.178555   -2.828715    1.061531
H      1.002982    0.205470   -2.130333
H      2.424426   -0.538633    1.773469
H      2.003090    1.910105    0.887807
H     -3.148194    2.149471    0.189041
H     -2.229819    1.420811    1.610182
H     -1.889462    0.132874   -2.769551
H     -1.780587   -3.180791   -0.212501
H     -1.323057    2.022096   -1.245173
H      0.377041    5.110608    1.387274
