53

C      6.616626   -0.973314   -0.929033
C      4.694221    0.145495    0.813082
C     -4.813395   -1.176993    1.520288
C     -0.674541    1.308777   -2.717712
C      1.597087   -1.465207    2.160504
C      5.188428   -0.939251   -1.290509
C     -2.597447   -1.596966    0.654459
C      0.024718    1.626370   -0.420741
C     -3.405710    1.012563   -1.022560
C      4.285583   -0.425892   -0.497450
C     -3.538234   -0.701214    0.836340
C     -1.017642    1.675851   -1.492666
C      0.579984   -1.625319    1.335565
C     -3.370471    0.675503    0.422133
C     -2.389990    2.124935   -1.254400
C     -1.342756   -1.280028    0.018514
C      0.542470    0.219505   -0.290297
C     -0.289469   -0.563356    0.739159
C      2.864759   -0.387239   -0.847183
C      0.061354   -2.877796    0.808938
O     -4.469973    1.392817    1.002388
O      2.430380   -0.848198   -1.935848
O      0.279161   -4.014466    1.312382
O     -2.985448    4.164327   -2.013845
O      1.914869    0.159710    0.001068
O     -0.677922   -2.530851   -0.303690
O     -2.768708    2.929537   -2.335734
H      7.184694   -0.256276   -1.549969
H      6.968846   -2.018549   -1.076898
H      6.730593   -0.749996    0.152997
H      3.877872    0.743072    1.273323
H      4.975671   -0.689461    1.466128
H      5.561231    0.830238    0.719654
H     -4.486558   -1.790878    2.387364
H     -5.416227   -0.314075    1.819500
H     -5.411502   -1.799372    0.849210
H      0.334544    0.985145   -2.920494
H     -1.377031    1.320536   -3.537076
H      1.918731   -0.497501    2.504604
H      2.124656   -2.341131    2.501347
H      4.838612   -1.345444   -2.239948
H     -2.786683   -2.633996    1.009362
H     -0.335577    2.031375    0.536229
H      0.922225    2.238235   -0.723887
H     -3.358498    0.199805   -1.739511
H     -4.392852    1.524425   -1.300235
H     -2.516423    1.204639    0.948475
H     -2.378718    2.811507   -0.364203
H     -1.437308   -0.832761   -1.000141
H      0.421001   -0.251521   -1.303493
H     -0.574568    0.092046    1.578480
H     -5.224347    1.251241    0.354709
H     -2.900318    4.259397   -1.035237
