76

C      6.093732    1.162920   -1.776944
C     -2.655288    3.974049    0.572779
C      0.578259   -3.312504   -0.095755
C     -3.838999   -2.495089   -1.638584
C      0.858508    4.262810   -1.897507
C     -3.477373   -4.136414    2.133991
C      0.913169   -0.190691   -1.285347
C      6.324449    1.412844   -0.320885
C      5.043537    1.749533    0.434976
C     -1.724717    2.172537    1.797357
C     -0.540670    1.603670    1.760808
C      1.853222   -1.079601    2.153823
C     -2.436288    2.637880    0.654542
C      0.163984   -2.456938    0.968610
C     -2.670293   -1.526936   -1.676041
C      1.030382    3.308519   -0.779876
C     -3.045119   -2.724619    1.930527
C      1.298558   -2.431158    1.982988
C      0.274043    1.343511    0.578252
C      1.917074   -0.459270    0.798302
C      4.088636    0.618184    0.318349
C     -0.381026   -1.066790    0.736474
C     -3.104480    1.930171   -0.441192
C     -1.839875   -0.957118    0.631964
C     -2.529136    0.762032   -1.130305
C     -2.972574   -0.631162   -2.827079
C      0.577593   -0.068688    0.179901
C     -2.612645   -0.570452   -0.539720
Cl    -4.841291    1.573151   -0.071358
O      2.017661    3.395684   -0.034930
O     -3.383667   -1.834101    2.755594
O      1.632295   -3.436010    2.527145
O      4.384747   -0.432087   -0.338983
O     -2.831907   -0.937713   -4.064714
O     -3.969231   -0.586314   -0.068105
O      0.236309    2.294906   -0.417458
O     -2.272117   -2.337102    0.853679
O      2.831491    0.608450    0.898132
O     -3.423064    0.560500   -2.299515
H      7.058881    1.405328   -2.304815
H      5.881686    0.111126   -2.039061
H      5.302009    1.854168   -2.143757
H     -2.311360    4.630499    1.328278
H     -3.181502    4.427486   -0.249908
H      0.668108   -2.937756   -1.124211
H      1.545315   -3.865424    0.088080
H     -0.146260   -4.183102   -0.211197
H     -3.791279   -3.038949   -2.618883
H     -3.847935   -3.184018   -0.806244
H     -4.768850   -1.899028   -1.690250
H      1.671066    5.013691   -1.890711
H      0.936744    3.748577   -2.895228
H     -0.138261    4.761279   -1.872761
H     -2.698557   -4.790707    1.732248
H     -4.482519   -4.296988    1.703407
H     -3.548014   -4.302086    3.214898
H      1.155777    0.757559   -1.777688
H      1.770090   -0.858399   -1.508364
H      0.069029   -0.614501   -1.811997
H      6.788956    0.479545    0.103858
H      7.067095    2.208140   -0.199772
H      4.655691    2.711327    0.100082
H      5.319929    1.820981    1.518773
H     -2.214681    2.318205    2.828990
H     -0.199839    1.305015    2.791058
H      2.915015   -1.209370    2.465506
H      1.359669   -0.559047    2.948980
H     -0.638736   -2.956913    1.585210
H     -1.729495   -2.044748   -1.927973
H      1.268694    1.670047    1.009460
H      2.453686   -1.212106    0.164831
H     -0.269358   -0.718041    1.846675
H     -3.305978    2.657112   -1.324326
H     -2.348859   -0.471086    1.495815
H     -1.617628    1.044463   -1.684556
H     -4.216218   -1.482875    0.191653
