36

C     -2.829199    2.592435   -0.307520
C     -0.059478   -2.939507   -0.508393
C      3.813361    1.900174    0.022673
C     -2.344603   -1.120930   -0.831834
C     -2.639816    0.324257   -0.690686
C     -1.905476   -1.630026    0.527205
C     -0.838435    1.572189    0.645457
C      1.365367    1.455824    0.347737
C      1.686259   -1.220270    0.290227
C     -2.045094    1.343174   -0.117324
C     -0.428013   -1.912217    0.568787
C      2.647059    0.977947    0.173682
C      0.259348    0.640776    0.491244
C      0.413039   -0.722553    0.463201
C      2.797719   -0.393449    0.146069
O      4.079458   -0.896603   -0.028102
H     -2.654309    3.324117    0.517307
H     -2.457850    3.066078   -1.254194
H     -3.918632    2.379332   -0.436076
H      0.538234   -3.773659   -0.093635
H      0.560494   -2.447828   -1.281902
H     -0.980089   -3.396606   -0.935220
H      3.437501    2.930877    0.166647
H      4.614784    1.658118    0.748179
H      4.174095    1.840380   -1.022387
H     -3.245354   -1.648551   -1.208773
H     -1.518752   -1.217047   -1.580733
H     -3.562732    0.615684   -1.171783
H     -2.430393   -2.575991    0.723024
H     -2.136279   -0.921358    1.329839
H     -0.503906    2.623398    0.459241
H     -1.126034    1.564452    1.739855
H      1.263202    2.550693    0.367375
H      1.883168   -2.284903    0.258788
H     -0.222835   -2.396927    1.546774
H      4.314190   -1.861481   -0.064752
