43

C      7.505967    1.647264   -0.369849
C     -5.655836    0.832331    0.034464
C     -4.208012    1.192285   -0.318367
C      2.726605    0.925400   -0.325458
C      4.221997   -0.883697   -0.606957
C      1.807575   -1.367341   -0.600141
C      3.825409    1.786204   -0.244295
C      5.272776   -0.018870   -0.523863
C      0.554975   -1.003782   -0.515826
C     -2.088838    0.043174    1.153259
C     -5.555046   -0.547098    0.626146
C     -3.380678   -0.544358    1.657972
C      2.917244   -0.419317   -0.507850
C      5.124386    1.343532   -0.340377
C     -2.142264   -0.231084   -0.335647
C     -3.636677   -0.183108   -0.595436
C     -0.538956   -1.999851   -0.614883
N     -1.728918   -1.605983   -0.528425
N     -4.155883   -0.944720    0.524917
O     -0.208049   -3.320612   -0.798147
O      6.209899    2.205246   -0.258703
H      7.532197    1.097815   -1.350309
H      8.257863    2.462049   -0.388642
H      7.706481    0.898008    0.413667
H     -6.111699    1.570332    0.694622
H     -6.179426    0.731134   -0.953530
H     -4.143204    1.872937   -1.168737
H     -3.752813    1.585581    0.596580
H      1.726029    1.338859   -0.241915
H      4.348080   -1.945969   -0.750339
H      2.029823   -2.436520   -0.747187
H      3.636021    2.849349   -0.098968
H      6.298460   -0.375944   -0.600724
H      0.321045    0.039679   -0.371823
H     -1.943878    1.093367    1.403526
H     -1.192463   -0.508134    1.556128
H     -6.126824   -1.299402    0.027067
H     -5.848329   -0.608214    1.676331
H     -3.123291   -1.448610    2.266967
H     -3.939164    0.174756    2.284461
H     -1.586820    0.489455   -0.936642
H     -3.921595   -0.589407   -1.567627
H     -0.854169   -3.896737   -1.352916
