43

C      0.183664    1.820182   -1.086490
C      3.219818   -1.147377   -0.006474
C      2.339608    1.606332    0.634728
C      1.254045    0.639582    0.681231
C      3.683441    1.205299    0.310092
C     -2.759916    1.235790   -0.347201
C     -1.112250   -1.080743   -1.320633
C      0.161935    0.685537   -0.136678
C      4.125625    0.010902    0.020489
C     -2.223582    0.055101    0.395315
C     -0.846775   -0.358946   -0.019155
C     -4.135265    1.594134    0.094958
C     -3.027959   -1.185875   -0.018806
C      5.572745   -0.185094   -0.287812
C     -2.840366   -2.272868    0.973517
N     -2.481568   -1.542779   -1.287311
O     -4.290381    2.183236    1.179659
O     -5.224092    1.280704   -0.680941
O      6.388093    0.755522   -0.280632
O      6.003655   -1.456366   -0.588062
O     -2.269179   -3.360309    0.720016
O     -3.323088   -2.082145    2.260484
H      0.161856    2.814217   -0.610464
H     -0.559914    1.739239   -1.911543
H      1.168766    1.783923   -1.658200
H      3.011171   -1.600297    0.977713
H      2.378078   -0.986792   -0.672224
H      3.809509   -1.981327   -0.533234
H      2.093128    2.490116   -0.049210
H      2.314636    2.165272    1.650619
H      1.255899   -0.175906    1.403703
H      4.499207    1.984485    0.287788
H     -2.063441    2.105488   -0.157788
H     -2.796713    1.094884   -1.431854
H     -1.019303   -0.418730   -2.201110
H     -0.439933   -1.932478   -1.420547
H     -2.304979    0.187567    1.504460
H     -0.483782   -1.151475    0.689797
H     -4.111347   -0.957038   -0.045051
H     -2.573606   -2.569802   -1.478208
H     -6.121215    1.667813   -0.415973
H      6.965186   -1.763623   -0.530484
H     -3.581411   -2.895354    2.808151
