57

C     -0.148293   -3.678052   -0.956387
C      3.821217   -1.047994   -1.407326
C      5.507091    2.342345    0.987760
C     -4.448634    0.600239    2.112317
C     -3.466396    2.000375   -2.183385
C     -4.234298    1.312895   -1.070741
C      1.684916   -2.276854   -0.095847
C      2.122697   -0.919447    0.309302
C     -2.045134    2.155398   -1.684360
C     -0.581872   -1.799489    0.577312
C     -1.302891    0.062968   -0.757214
C      0.222185   -2.247795   -0.558562
C      3.131578   -0.328616   -0.303656
C      5.037875    0.971831    0.556309
C     -1.300491   -0.716358    0.492709
C     -3.242141    1.262534    0.071819
C      3.579411    1.052734    0.106337
C     -2.137274   -0.230600    1.639526
C     -3.479611    0.141059    1.020331
N     -1.937843    1.337219   -0.496359
O      5.134334    0.097740    1.641029
O      2.816169    1.519524    1.159391
O     -2.258959   -1.188452    2.625428
O     -3.990862   -0.989450    0.422324
H      0.624269   -4.076817   -1.645657
H     -1.083834   -3.611940   -1.565756
H     -0.308243   -4.320606   -0.069667
H      4.308163   -1.986484   -1.031720
H      4.622097   -0.431321   -1.859531
H      3.104828   -1.284638   -2.225311
H      5.331162    2.477145    2.085886
H      5.004446    3.147684    0.429158
H      6.616339    2.364082    0.804576
H     -3.942018    1.360235    2.752829
H     -4.792921   -0.273787    2.714979
H     -5.295347    1.083974    1.622701
H     -3.933750    2.991427   -2.410578
H     -3.472546    1.382130   -3.119979
H     -5.121542    1.921313   -0.801378
H     -4.592775    0.309274   -1.359261
H      1.798384   -2.940428    0.801100
H      2.330872   -2.703615   -0.875320
H      1.628707   -0.398379    1.103402
H     -1.931830    3.212324   -1.371780
H     -1.296398    1.935922   -2.447367
H     -0.569436   -2.380706    1.485186
H     -1.806851   -0.519294   -1.551421
H     -0.273296    0.306686   -1.113090
H      0.164271   -1.650068   -1.460274
H      5.684497    0.591494   -0.238868
H     -3.402110    2.220183    0.649986
H      3.495262    1.745729   -0.731839
H     -1.656379    0.694098    2.004238
H      4.816165   -0.798121    1.437947
H      3.352981    2.021488    1.823087
H     -2.919818   -0.858367    3.277471
H     -4.966127   -0.964367    0.276449
