57

C      1.228865   -1.478325   -1.853842
C      4.321829   -1.639390    0.076758
C      6.313963    2.467016    0.567589
C     -4.251614    2.500814    0.345492
C     -5.673853   -1.539609    1.298685
C     -5.604453   -0.105636    0.756973
C      1.580262   -1.323972    0.547652
C      2.450331   -0.164564    0.318125
C     -4.297995   -2.128862    0.997242
C     -0.276979   -0.096961   -0.541323
C     -2.289380   -1.323310   -0.063879
C      0.502515   -1.364085   -0.524039
C      3.756940   -0.262067    0.090338
C      5.646755    1.136520    0.890475
C     -1.590150   -0.043636   -0.328837
C     -4.105434    0.084588    0.664404
C      4.540913    0.953197   -0.127435
C     -2.244957    1.280387   -0.373312
C     -3.726761    1.231588   -0.246245
N     -3.706039   -1.196212    0.065086
O      6.612825    0.151674    0.783124
O      5.098501    1.009119   -1.411897
O     -1.917548    2.004299   -1.526340
O     -4.363900    1.026694   -1.475185
H      0.563175   -1.240682   -2.713583
H      2.137466   -0.848534   -1.843513
H      1.511326   -2.547711   -1.975220
H      4.258311   -2.080845    1.096744
H      5.388518   -1.651066   -0.217801
H      3.791515   -2.285363   -0.652575
H      7.272536    2.598064    1.068082
H      6.393258    2.496388   -0.555631
H      5.597986    3.294268    0.820739
H     -3.791379    2.630061    1.346875
H     -5.337176    2.445726    0.481582
H     -3.942218    3.389657   -0.267390
H     -5.819653   -1.455847    2.398250
H     -6.473812   -2.116794    0.800730
H     -6.077948   -0.144219   -0.260075
H     -6.092543    0.606490    1.427687
H      1.065735   -1.149627    1.536713
H      2.100638   -2.274261    0.644976
H      1.981052    0.826975    0.340150
H     -4.359841   -3.158549    0.615063
H     -3.658083   -2.139608    1.918580
H      0.259462    0.848091   -0.741350
H     -2.109341   -1.980403   -0.963344
H     -1.823425   -1.865620    0.792152
H     -0.179698   -2.214930   -0.358623
H      5.226181    1.217124    1.902551
H     -3.725486    0.200147    1.685966
H      3.882983    1.838358   -0.040251
H     -1.804057    1.876433    0.477129
H      7.460201    0.479849    1.200518
H      4.370004    1.228796   -2.066968
H     -2.212223    1.584945   -2.350662
H     -3.858100    0.413424   -2.066561
