74

C     -3.710112    1.035648   -2.958695
C      4.396355    1.933316   -1.453643
C      4.621264   -0.243334    3.298456
C     -3.298474   -2.655893    2.172041
C      0.087961   -0.694025    1.773081
C     -0.482330   -2.565257   -2.495934
C      0.143439    2.509938    2.082035
C      1.105846    1.618336    1.809439
C     -1.901470    2.528007    0.527339
C      2.623764   -1.866753   -0.652315
C     -0.836315    4.555729    1.176870
C     -3.464837    0.154329   -1.778070
C      3.006020    1.783745   -1.019952
C      3.587348   -1.005961    2.550496
C     -2.793239   -2.290980    0.841426
C     -0.905848    2.997177    1.209065
C      1.464205   -2.792757   -1.080841
C      1.198660    1.006482    0.497596
C      2.055522   -1.284090    0.624982
C     -2.614874    1.277826    0.187951
C      0.002364   -0.741528   -0.785445
C     -1.488556   -0.787806   -0.621594
C     -4.510358    0.452612   -0.768694
C      0.797368   -0.476435    0.436182
C      0.529263   -1.771602   -1.740326
C     -2.195929    0.526458   -1.002980
O     -0.935987    4.998685    2.518313
O      2.110059    2.311496   -1.761805
O      3.172487   -2.099886    3.006456
O     -3.097034   -3.017112   -0.139436
O      1.940067   -3.617902   -2.072096
O     -5.607341   -0.151023   -0.575882
O      1.373556   -1.209472   -2.740796
O     -1.460905    1.249175   -1.949052
O      2.579137    1.135230    0.099289
O      3.040463   -0.573457    1.352754
O     -1.989851   -1.176323    0.603838
O     -4.006525    1.543558   -0.089412
H     -4.795428    0.958389   -3.212466
H     -3.156370    0.762147   -3.863625
H     -3.544295    2.085856   -2.637828
H      4.520597    2.877182   -2.023263
H      5.114155    1.998114   -0.601247
H      4.705314    1.110107   -2.162419
H      4.266097   -0.231392    4.370518
H      4.690240    0.799686    2.987679
H      5.594324   -0.779785    3.330332
H     -4.418264   -2.520577    2.153820
H     -2.849620   -2.054700    2.982713
H     -3.141961   -3.747165    2.359721
H      0.906690   -0.492424    2.540301
H     -0.635147    0.079350    2.014947
H     -0.181398   -1.732358    1.954703
H      0.133912   -3.181133   -3.226991
H     -1.113076   -1.949703   -3.197431
H     -1.033941   -3.312894   -1.927088
H      0.263910    2.872352    3.142926
H      1.855805    1.307222    2.551470
H     -2.476439    3.341207   -0.081301
H      2.838754   -1.126908   -1.419650
H      3.465417   -2.498745   -0.371804
H      0.067860    4.905658    0.673458
H     -1.674352    5.019942    0.689747
H     -3.452785   -0.925545   -2.031194
H      1.007291   -3.290818   -0.229306
H      0.653374    1.542392   -0.305193
H      1.861139   -2.212671    1.248523
H     -2.736145    0.543151    1.038659
H      0.116389    0.205131   -1.420356
H     -1.857810   -1.551626   -1.359490
H     -1.475591    4.307981    2.985543
H      1.427225   -4.452502   -2.153179
H      1.917667   -1.906458   -3.135833
H     -1.398702    0.655387   -2.746037
