41

C     -6.492545   -0.490696   -1.258847
C      6.337010    0.228692   -0.270654
C      4.702787   -1.017984    1.231481
C     -4.530024   -0.835927    0.641459
C      0.276144   -0.489327    1.354598
C     -5.221883    0.263698   -1.390234
C      2.593490   -0.255459   -0.414972
C     -2.071252    0.677916    0.309154
C      3.965434    0.173599   -0.742283
C     -3.011947    0.838127   -0.592678
C      1.666105    0.937101   -0.185851
C     -0.760431    1.418912    0.224693
C      4.954583   -0.190077    0.038720
C     -4.278426    0.100191   -0.480258
C      0.317110    0.378536    0.134935
H     -6.248588   -1.574894   -1.092273
H     -7.140622   -0.362863   -2.152932
H     -7.050277   -0.131536   -0.373581
H      6.701320   -0.436405   -1.091894
H      6.419998    1.264025   -0.616033
H      6.992486    0.129580    0.631761
H      3.957693   -0.471291    1.868145
H      4.232606   -2.006416    0.991637
H      5.610862   -1.148839    1.857529
H     -5.601150   -1.007425    0.745811
H     -4.196535   -0.398732    1.625185
H     -3.944792   -1.777659    0.539135
H     -0.030843   -1.527474    1.127757
H      1.246954   -0.552729    1.896028
H     -0.485165   -0.106363    2.082817
H     -5.075195    0.949107   -2.238424
H      2.230894   -0.834001   -1.316927
H      2.597369   -0.936851    0.430620
H     -2.269988   -0.007963    1.119067
H      4.172253    0.798364   -1.638074
H     -2.864631    1.507061   -1.416889
H      2.102624    1.502287    0.675150
H      1.595682    1.564735   -1.072756
H     -0.766632    2.149252   -0.582181
H     -0.671936    1.956917    1.198885
H      0.039459   -0.277186   -0.735930
