61

C     -5.734418    2.390440    0.622435
C      1.382048   -2.814790   -1.504813
C      6.043462    1.463997    0.393379
C      0.352518   -1.277879    0.091190
C     -7.031259    2.830379    0.781966
C      6.345619    2.556163   -0.386214
C      2.434524   -3.446889   -2.091841
C      0.212356   -0.396410    1.032105
C     -6.605093    0.374423   -0.285771
C     -4.118401    0.669437   -0.112134
C      4.849766    0.598291   -1.450406
C     -5.510380    1.121906    0.071206
C      1.534459   -1.887856   -0.461831
C      5.267403    0.437418   -0.143418
C     -8.107623    2.041617    0.407699
C      5.925999    2.710875   -1.689559
C      3.731247   -3.215794   -1.696822
C     -7.914614    0.793732   -0.135413
C      5.162035    1.700638   -2.218516
C     -3.581806    0.012507    1.134818
C     -1.128889    0.096669    1.444969
C      2.836901   -1.641281   -0.048678
C      3.402927   -0.768224    0.997713
C      4.916724   -0.758820    0.660662
C      3.899870   -2.310678   -0.676442
C     -4.427678   -1.155805    1.460346
C      3.263431   -1.384043    2.361854
O     -9.385828    2.556773    0.600754
O      6.264197    3.843333   -2.433891
O      4.815108   -3.847522   -2.279972
O     -8.991396   -0.012967   -0.517456
O      4.715430    1.803824   -3.518567
O     -1.249942    0.943535    2.349104
O     -5.603629   -1.052404    1.821416
O     -3.846592   -2.426662    1.346524
O      2.726489   -2.505443    2.525704
O      3.733283   -0.710745    3.472583
O     -2.252344   -0.389546    0.819386
O      5.107312   -1.905263   -0.099961
H     -4.873173    2.996951    0.910980
H      0.356969   -3.018848   -1.841328
H      6.384911    1.360408    1.422585
H     -0.614616   -1.606925   -0.350975
H     -7.222616    3.818374    1.210784
H      6.951747    3.370790    0.014472
H      2.300775   -4.169779   -2.906607
H      1.070956   -0.017840    1.515723
H     -6.433132   -0.603736   -0.719561
H     -4.081793   -0.062723   -0.965141
H     -3.492817    1.526822   -0.437061
H      4.235638   -0.209519   -1.880542
H     -3.601719    0.766673    1.945655
H      3.117122    0.283433    0.944025
H      5.499750   -0.787740    1.582356
H     -9.543846    3.463762    0.994602
H      6.825029    4.590974   -2.054027
H      4.621024   -4.504794   -3.028648
H     -8.794248   -0.919221   -0.910151
H      4.958113    2.617049   -4.055088
H     -4.328509   -3.257218    1.599836
H      3.231219   -0.774297    4.364005
