118

C     10.236168    5.883227    0.795670
C      8.985037   -2.663257   -0.143078
C     -4.477234    1.357752    1.924777
C      0.874913   -4.213255   -0.424524
C      3.948890   -4.104850   -0.062614
C     -7.530037    2.568259    1.848909
C     10.546606    5.299604   -0.341317
C     11.079094    3.892741   -0.402365
C     10.170551    3.063293   -1.200635
C      9.570693    2.006804   -0.707584
C      9.709609    1.516214    0.652791
C    -11.399167    3.777610   -1.033286
C     -9.931003    3.917108   -0.797895
C      9.061539    0.427998    1.075790
C     -0.725812   -3.272909    1.978247
C      0.728653   -3.226402    2.226095
C      6.843580   -1.721631   -2.035456
C      8.108528   -1.349141   -1.975388
C    -11.708280    3.158981   -2.371211
C     -9.781465    1.720542    0.238219
C     -1.766149   -0.826523   -0.760409
C      5.099292   -1.766231    1.328561
C     -5.652610    1.852604   -0.724029
C     -4.753076   -1.023199    1.535961
C      2.395956   -2.466445   -1.130835
C     -9.202827    2.569372   -0.828899
C     -1.302408   -2.076823    1.263447
C      5.965147   -2.135033   -0.914370
C     -3.160079   -0.725742   -0.281170
C      6.030341   -1.189421    0.266520
C     -1.030524   -2.062697   -0.204248
C     -3.273310   -0.997915    1.224436
C     -8.847891    0.760236    0.888917
C      8.182714   -0.318995    0.188415
C      1.535413   -2.430931    1.230492
C      3.722697   -1.840277    0.775036
C     -5.010598    0.545305   -0.303242
C     -7.112536    1.728348   -0.455308
C      8.951571   -1.258835   -0.748013
C     -5.304755    0.351048    1.158442
C      1.222683   -2.770978   -0.193494
C      3.734991   -2.676365   -0.517722
C     -7.419143    1.326451    0.972813
O    -13.107481    3.070507   -2.499864
O     -8.759323   -0.386243    0.065895
O     10.239638   -0.871244   -0.980403
O     -7.864625    2.836173   -0.737312
O     -2.702806   -2.253442    1.410543
O      7.286574   -1.148600    0.857555
O     -3.635733    0.562450   -0.474055
O      2.851540   -2.553616    1.598763
O      4.689664   -2.227631   -1.389205
O      0.228926   -1.928164   -0.624157
O     -6.625676    0.355813    1.483305
H      9.859126    6.886612    0.805093
H     10.358588    5.357276    1.726741
H      8.361808   -2.742360    0.758950
H      8.734816   -3.439134   -0.891772
H     10.031796   -2.913734    0.192382
H     -3.524934    1.540097    1.377252
H     -4.958609    2.322201    2.061526
H     -4.217900    0.910373    2.919033
H      1.500955   -4.699111   -1.231539
H      0.954381   -4.866931    0.439302
H     -0.176846   -4.346905   -0.816306
H      3.239313   -4.257652    0.794449
H      4.955553   -4.197531    0.386927
H      3.863533   -4.846759   -0.851109
H     -6.973006    3.431603    1.379067
H     -8.587723    2.935727    1.909709
H     -7.210961    2.383535    2.886648
H     10.417431    5.843194   -1.268207
H     11.247913    3.596602    0.630967
H     12.120421    3.917787   -0.865352
H     10.018098    3.373753   -2.236879
H      8.912243    1.477228   -1.427975
H     10.360700    2.062150    1.325871
H    -11.849708    4.768861   -1.006732
H    -11.900707    3.170276   -0.245019
H     -9.781781    4.310376    0.232737
H     -9.520191    4.611313   -1.550740
H      9.250488    0.160881    2.124412
H     -1.247528   -3.303828    2.982594
H     -1.100240   -4.171619    1.450083
H      1.135989   -4.252663    2.371577
H      0.913199   -2.721788    3.222830
H      6.423551   -1.716158   -3.026237
H      8.636354   -1.070464   -2.875889
H    -11.364327    3.824692   -3.189587
H    -11.308239    2.150630   -2.504353
H    -10.607195    1.106756   -0.230186
H    -10.321211    2.316736    1.030850
H     -1.773488   -0.896512   -1.868041
H     -1.183032    0.082908   -0.494940
H      5.483540   -2.724341    1.731695
H      5.101138   -1.038413    2.181692
H     -5.516112    2.067754   -1.797676
H     -5.193976    2.666109   -0.106221
H     -5.214005   -1.838275    0.979620
H     -4.865381   -1.107704    2.636758
H      2.305118   -3.105253   -2.037686
H      2.357259   -1.417715   -1.505531
H     -9.379623    2.115491   -1.842547
H     -0.973527   -1.148132    1.759558
H      6.384248   -3.099095   -0.551063
H     -3.841496   -1.413756   -0.794280
H      5.631596   -0.208937   -0.011447
H     -1.615587   -2.922867   -0.645079
H     -2.709391   -0.281247    1.820826
H     -9.207200    0.470429    1.896366
H      7.568580    0.390099   -0.401725
H      1.260563   -1.349390    1.418591
H      3.366023   -0.831971    0.556407
H     -5.489264   -0.288294   -0.853408
H     -7.498007    0.896764   -1.115498
H    -13.482957    2.560992   -1.717724
H     -8.946552   -1.214448    0.576778
H     10.869922   -1.337864   -0.373004
