54

C     -1.830841   -0.535713   -0.959304
C      2.858602   -1.506530   -1.943156
C     -3.564988    0.676439    0.872984
C      2.913444    0.552684    0.584570
C     -2.742446   -0.494421    1.246290
C      3.081816   -0.880008    0.504633
C     -5.029892    0.319888    1.014764
C      3.400943    1.491452   -0.442071
C     -6.433590    1.733824   -0.587642
C      5.821656    2.220219   -0.005905
C     -7.198463    2.869409   -0.427636
C      7.014903    1.965377   -0.644040
C     -1.127308   -2.304201    0.848345
C      0.998164   -1.864302   -0.445295
C     -6.380232    2.400862    1.512664
C      5.490751    0.888228   -1.717916
C     -1.886336   -1.122147    0.405312
C      2.496634   -1.751438   -0.497257
C     -5.915448    1.443135    0.658066
C      4.838484    1.524940   -0.698504
C      0.374919   -2.165696    0.850662
O      0.765633   -1.339000    1.871187
O     -7.133738    3.221666    0.827400
O      6.777620    1.173541   -1.651534
H     -1.333408    0.448240   -1.010924
H     -1.480951   -1.265476   -1.736630
H     -2.887452   -0.307276   -1.326373
H      3.938150   -1.689115   -2.088655
H      2.447502   -0.639040   -2.415448
H      2.397128   -2.381256   -2.532696
H     -3.297760    1.173479   -0.052268
H     -3.372174    1.449123    1.684007
H      3.438841    0.884176    1.558682
H      1.832633    0.815551    0.877908
H     -2.798906   -0.906114    2.245748
H      4.247744   -1.049758    0.421969
H      2.944667   -1.311717    1.549863
H     -5.219525   -0.021728    2.038049
H     -5.218994   -0.532446    0.331310
H      2.873483    1.337676   -1.398720
H      3.168239    2.564480   -0.074477
H     -6.248426    1.151958   -1.494874
H      5.593465    2.816541    0.853132
H     -7.729621    3.335981   -1.227663
H      7.964730    2.393104   -0.302957
H     -1.406731   -2.621204    1.885113
H     -1.412340   -3.200569    0.219432
H      0.619248   -0.865872   -0.842196
H      0.729772   -2.594114   -1.248652
H     -6.161948    2.466530    2.569756
H      5.107574    0.238085   -2.501874
H      2.855945   -2.828124   -0.311689
H      0.747982   -3.209979    1.143236
H      0.070846   -0.650027    2.011273
