142

C      1.958575   -2.217384    2.398129
C      6.210764    0.119133   -2.148545
C      7.854706    1.963610   -1.896047
C     -8.851906    0.383374   -1.565721
C      1.021054   -1.045729    2.079719
C      3.913417    1.671151    0.159893
C      5.118877    0.866296    0.510515
C      2.617964    1.162081    0.726429
C     -0.981477    0.433783    0.059045
C     -1.739264    0.667313    1.268676
C     -4.763181    0.248900    0.499515
C     -3.793390   -1.852981    0.136038
C     -5.781949    0.000141   -0.411471
C     -4.792715   -2.124464   -0.771844
C      6.417714    1.387306   -0.015863
C      2.335369   -0.208926    0.235675
C     -0.025310   -0.664863   -0.100872
C     -3.775042   -0.645303    0.785455
C     -5.808797   -1.200757   -1.063808
C     -2.698397   -0.354777    1.767722
C      6.441993    1.472542   -1.500170
F      5.599562    2.449138   -1.979081
N     -6.791088   -1.553089   -2.008759
N      1.100359   -0.757462    0.725901
O     -3.397626    0.178917    2.886436
O     -8.904796   -2.082775   -0.535827
O     -9.222772   -1.925248   -2.922487
S     -8.457619   -1.314041   -1.760090
C      1.644861   -3.266667   -2.154696
C      7.067189    2.594065    1.839376
C      8.027303    0.700996    0.562552
C     -8.645405    1.147476    2.529033
C      1.794197   -2.572026   -0.823379
C      3.669753    0.548037    0.232309
C      5.065370    0.818731    0.792810
C      3.749343   -0.093848   -1.129488
C     -0.725105   -1.252844   -1.582413
C     -2.116227   -0.817836   -1.347545
C     -4.460632    0.657186   -0.004514
C     -5.188251   -1.568003   -0.213286
C     -5.772734    1.122421   -0.048480
C     -6.499024   -1.135670   -0.259451
C      5.847620    1.729190   -0.100402
C      2.394583   -0.361451   -1.661052
C      0.247770   -0.716263   -0.575163
C     -4.155685   -0.666217   -0.084379
C     -6.813770    0.234566   -0.176445
C     -2.746003   -1.204115   -0.041847
C      7.212713    1.965575    0.493152
F      7.884321    2.826179   -0.385075
N     -8.159710    0.662006   -0.228765
N      1.553423   -1.203994   -0.956023
O     -2.051782   -0.518063    0.985551
O     -7.943969    3.054622    0.807773
O    -10.227478    2.127266    0.563844
S     -8.781780    1.814894    0.874624
C     -0.514678   -0.119742    0.700721
C      0.402728    0.054390   -0.215632
C     -1.942570   -0.187239    0.348629
C      1.813257    0.119053    0.149791
O     -2.798687   -0.353800    1.239249
O     -2.360202   -0.070265   -0.948921
O      2.192655    0.010824    1.345790
O      2.804898    0.303259   -0.805669
H      1.765837   -2.463495    3.483383
H      3.009000   -1.937036    2.335303
H      1.697461   -3.108346    1.824234
H      5.217812    0.115011   -2.657448
H      6.258061   -0.692046   -1.379817
H      6.970211   -0.019177   -2.937186
H      8.583475    1.462745   -1.235452
H      8.050981    1.751238   -2.961690
H      7.862082    3.054296   -1.666928
H     -9.910957    0.548008   -1.945800
H     -8.228531    1.042393   -2.208387
H     -8.886596    0.730106   -0.513793
H      1.381626   -0.214597    2.719399
H      0.029565   -1.417893    2.364910
H      4.060562    2.756742    0.359022
H      3.813603    1.605065   -0.967659
H      5.204757    0.905467    1.638378
H      4.986400   -0.220640    0.283284
H      1.822230    1.859498    0.353329
H      2.586797    1.248037    1.833919
H     -0.444088    1.393864   -0.213223
H     -1.716089    0.350514   -0.808348
H     -1.037076    0.895577    2.127432
H     -2.318145    1.625175    1.166856
H     -4.747526    1.203782    1.013706
H     -3.035540   -2.613125    0.316455
H     -6.535113    0.753664   -0.597898
H     -4.839694   -3.068635   -1.303724
H      6.540434    2.437520    0.371562
H      7.238925    0.735050    0.365149
H      2.319255   -0.213345   -0.858015
H      3.149685   -0.912027    0.575146
H      0.389662   -0.553696   -1.158508
H     -0.494467   -1.684831   -0.167498
H     -2.303954   -1.300289    2.110679
H     -6.441462   -1.984276   -2.904914
H     -2.804204    0.873812    3.277278
H      2.590986   -3.763297   -2.469876
H      1.242404   -2.610671   -2.955434
H      0.916710   -4.090624   -2.034835
H      7.832900    3.415582    1.924556
H      6.053593    3.006856    1.961437
H      7.240362    1.801017    2.601603
H      9.102106    0.975272    0.423942
H      7.967280    0.178753    1.535175
H      7.757800    0.020259   -0.250050
H     -8.314067    0.091176    2.487469
H     -7.960213    1.763042    3.157486
H     -9.618228    1.153965    3.059128
H      0.994321   -2.996143   -0.146590
H      2.737303   -2.854296   -0.307516
H      3.190197    1.542464    0.158785
H      3.101390   -0.053469    0.949126
H      5.545857   -0.173772    0.886195
H      4.912980    1.331827    1.758874
H      4.219022    0.683085   -1.804932
H      4.442259   -0.948069   -1.160134
H     -0.417197   -0.937147   -2.612018
H     -0.663349   -2.377087   -1.497841
H     -2.741034   -1.292386   -2.173701
H     -2.269315    0.282847   -1.552826
H     -3.635151    1.366321    0.098336
H     -4.945802   -2.636972   -0.277822
H     -5.978720    2.169002    0.015114
H     -7.315657   -1.829382   -0.359395
H      6.029045    1.287036   -1.108146
H      5.317494    2.684272   -0.202040
H      1.881098    0.633803   -1.794133
H      2.519521   -0.732652   -2.719337
H     -0.001755   -1.123359    0.431454
H      0.202064    0.381754   -0.592998
H     -2.739713   -2.283391    0.100831
H     -8.784143    0.266258   -0.953939
H     -2.283233   -0.958089    1.844480
H     -0.200494   -0.213070    1.723433
H      0.141767    0.153040   -1.249682
H     -3.300054    0.229990   -1.223581
H      3.761381    0.073561   -0.563657
