73

C     -5.626242   -0.461142    1.468046
C     -4.249761    1.494581    1.624978
C      4.356234   -3.693377   -0.074655
C     -3.435968   -1.168501   -2.066463
C     -0.868783    1.544186    1.777110
C      1.291577   -2.391037   -1.752204
C      2.087690   -2.553264   -0.761819
C     -3.359456   -2.908314   -0.194389
C     -2.619331   -3.918471   -0.347150
C     -0.204910   -2.429142   -1.943859
C      4.361315   -1.484030   -0.936065
C      3.458159    0.765648   -0.392822
C      4.371629    2.466685    1.064294
C      1.970134    4.950782    2.023721
C     -4.609049    0.322310    0.719426
C      3.572391   -2.498927   -0.631170
C     -3.787516   -1.588955   -0.686040
C     -0.802514    2.058952    0.358283
C      3.746366   -0.224724   -1.493973
C      4.386107    1.932807   -0.341126
C      1.199099    4.187463    1.155007
C     -1.585198   -4.367279   -1.319792
C      3.192544    3.372066    1.298419
C     -3.399017   -0.441810    0.258596
C     -0.195297    4.392245    0.764852
C     -1.882365    1.447753   -0.510322
N     -0.680949   -3.791728   -1.910065
N     -0.991168    3.486823    0.442571
N      2.003104    3.221184    0.732092
O      4.733380    0.349788   -2.300118
O      5.698580    1.430694   -0.534756
O     -1.627487   -5.787996   -1.668181
O     -0.674540    5.737021    0.754879
O     -2.248897    2.225095   -1.458466
O      3.149510    4.420041    2.072140
O     -2.390958    0.254551   -0.320217
H     -5.410859   -0.422073    2.572261
H     -6.593195    0.130132    1.392509
H     -5.872990   -1.449907    1.114935
H     -3.645494    1.156846    2.491612
H     -3.622484    2.182637    1.027072
H     -5.134626    2.071186    1.919758
H      5.127368   -3.321502    0.614872
H      4.742811   -4.270952   -0.922383
H      3.657587   -4.303098    0.545111
H     -2.985657   -2.031948   -2.650122
H     -4.260445   -0.702327   -2.650950
H     -2.622966   -0.424832   -2.034845
H     -1.419142    2.280535    2.421480
H      0.174931    1.496412    2.158785
H     -1.358308    0.546968    1.852879
H      1.582046   -2.172215   -2.854619
H      1.782336   -2.825552    0.324233
H     -4.068599   -2.926373    0.790659
H     -2.628046   -4.816044    0.399817
H     -0.758422   -1.754380   -1.286832
H     -0.477426   -2.122307   -3.001615
H      5.440141   -1.526598   -0.807959
H      3.580711    0.212402    0.578096
H      2.431016    1.144103   -0.418569
H      4.303157    1.684932    1.845283
H      5.315032    3.028255    1.300386
H      1.615808    5.848139    2.565874
H     -5.110219    0.722830   -0.201261
H     -4.947981   -1.527536   -0.685729
H      0.194240    1.801003   -0.056200
H      2.905816   -0.399265   -2.154859
H      4.210375    2.701728   -1.089007
H     -3.035608   -0.990814    1.182387
H      5.534886   -0.185609   -2.400679
H      5.833575    0.831849    0.259951
H     -1.390426   -6.047485   -2.644266
H     -1.427355    6.028881    0.147438
