142

C      0.058559    2.128186   -1.560912
C      7.640509   -0.901405   -1.092697
C      6.486137   -2.760344   -0.009708
C     -7.778115   -2.961718   -1.522687
C      0.369682    0.705289   -1.072203
C      4.723204    1.816811    0.587182
C      5.398637    0.868314   -0.341405
C      3.327047    1.346248    0.987288
C     -0.278528   -0.080940    2.021538
C     -1.575221   -0.417091    1.342825
C     -4.682499    1.521467    0.446405
C     -4.059741   -0.676993   -0.082249
C     -5.899600    1.316489   -0.144207
C     -5.293793   -0.896495   -0.685402
C      5.572612   -0.512031    0.259572
C      2.436155    1.196032   -0.181092
C      0.610424    0.904602    1.364032
C     -3.709158    0.516148    0.496998
C     -6.245566    0.090055   -0.733425
C     -2.411587    0.796206    1.154883
C      6.268571   -1.442335   -0.728298
F      5.484823   -1.586675   -1.853346
N     -7.527388   -0.065185   -1.326956
N      1.134004    0.700879    0.110603
O     -2.606075    1.419959    2.399494
O     -9.818668   -1.252962   -1.712906
O     -8.790390   -1.573193    0.470989
S     -8.493355   -1.439826   -1.013730
C     -1.515504   -1.095666    2.571505
C     -8.186457   -1.420578   -0.868285
C     -8.136024    0.363699    0.872424
C      9.324519   -0.285675    0.317742
C     -0.471956   -0.416229    1.681295
C     -4.189468    0.302068   -0.744057
C     -5.539136   -0.193372   -0.303302
C     -3.119890   -0.475907    0.050834
C      1.199464    0.631343   -0.791242
C      1.761279    1.491781    0.238661
C      4.910798    1.509319   -0.193696
C      4.355349   -0.755909    0.175401
C      6.021864    1.079655   -0.888744
C      5.456990   -1.188819   -0.513297
C     -6.649971    0.537297   -1.043439
C     -1.757690   -0.009506   -0.339369
C      0.530704   -0.632819   -0.523400
C      4.063918    0.572445    0.347296
C      6.304657   -0.246158   -1.054376
C      2.860722    0.957697    1.098706
C     -8.004459    0.047455   -0.607213
F     -8.983420    0.775556   -1.257564
N      7.445755   -0.742872   -1.757666
N     -0.659803   -0.637794    0.291539
O      3.252569    2.013607    1.962617
O     10.002154   -0.714149   -2.272585
O      8.935792    1.438889   -1.759902
S      8.970516   -0.013853   -1.420613
C     -0.348797   -0.545753    0.021635
C      0.369721    0.535183   -0.206440
C     -1.815324   -0.524834    0.017533
C      1.827664    0.487982   -0.196784
O     -2.430001   -1.594331    0.243214
O     -2.537117    0.606640   -0.220923
O      2.468955    1.547696   -0.420401
O      2.507997   -0.676531    0.048661
H      0.327035    2.869223   -0.781391
H      0.505999    2.326712   -2.534436
H     -1.041970    2.181646   -1.670514
H      8.070358   -0.471916   -0.157489
H      8.271155   -1.736911   -1.454495
H      7.594895   -0.147044   -1.901350
H      5.649055   -3.466863   -0.198339
H      7.443259   -3.204216   -0.380175
H      6.553820   -2.567928    1.071269
H     -8.627814   -3.649249   -1.758915
H     -7.185573   -2.810546   -2.460502
H     -7.205925   -3.433508   -0.719026
H     -0.514604    0.093028   -1.148847
H      1.060650    0.292672   -1.885738
H      4.630602    2.811910    0.108644
H      5.355911    1.955727    1.486270
H      4.893437    0.757489   -1.310692
H      6.417887    1.250935   -0.554068
H      3.427588    0.429116    1.561161
H      2.928010    2.167066    1.671846
H     -0.595455    0.375648    3.012634
H      0.247540   -1.009894    2.348500
H     -2.149068   -1.042134    2.127358
H     -1.479100   -1.101317    0.507041
H     -4.412941    2.475067    0.904406
H     -3.328523   -1.498149   -0.065360
H     -6.652746    2.089388   -0.185007
H     -5.479496   -1.861679   -1.116410
H      4.581818   -0.965854    0.466332
H      6.122545   -0.443464    1.197235
H      2.918691    0.461631   -0.878199
H      2.337761    2.192979   -0.683360
H      1.500477    1.038337    2.080337
H      0.102665    1.925206    1.500194
H     -1.910039    1.550345    0.478031
H     -7.854791    0.684027   -1.955366
H     -2.843790    0.723032    3.051940
H     -0.927355   -1.645262    3.374635
H     -2.148810   -0.385416    3.098962
H     -2.025519   -1.911039    2.030136
H     -8.373147   -1.926197    0.112489
H     -9.109531   -1.596631   -1.479629
H     -7.352082   -1.881220   -1.410767
H     -7.589090   -0.396268    1.445424
H     -7.643602    1.338052    1.053516
H     -9.199470    0.465627    1.170583
H      9.276071    0.696075    0.814292
H     10.305279   -0.754139    0.421613
H      8.569214   -0.937546    0.783262
H     -0.536645    0.661772    1.928911
H      0.502349   -0.866770    1.949968
H     -4.073242    1.352340   -0.403279
H     -4.018861    0.167194   -1.813379
H     -5.669983    0.045121    0.780362
H     -5.678407   -1.265848   -0.430406
H     -3.378227   -0.216487    1.114987
H     -3.326683   -1.541611   -0.138309
H      0.469324    1.264266   -1.397068
H      2.002995    0.423090   -1.577093
H      2.248251    2.371857   -0.321101
H      0.969990    2.001687    0.816905
H      4.732208    2.587053   -0.091551
H      3.710397   -1.551279    0.586802
H      6.688319    1.816363   -1.316485
H      5.657228   -2.245845   -0.631836
H     -6.601568    1.637311   -0.827598
H     -6.514606    0.451368   -2.133724
H     -1.725896    1.099513   -0.124436
H     -1.653255   -0.151099   -1.440442
H      0.219833   -1.069309   -1.510573
H      1.188650   -1.429665   -0.087096
H      2.609378    0.134018    1.762912
H      7.327159   -1.522951   -2.448583
H      2.886064    1.890371    2.874655
H      0.191907   -1.455478    0.213343
H     -0.160781    1.455720   -0.400432
H     -3.460659    0.783625    0.180660
H      3.386433   -0.619918    0.579549
