41

C     -3.445817    1.269646   -0.582130
C     -2.870576   -0.613973   -2.156605
C      2.086730    2.564942    1.736555
C      0.405718   -2.832279    0.255874
C      2.461845   -0.909797    1.891197
C      1.371871    0.094519    1.586005
C      2.673629   -1.839645    0.717043
C     -0.133488    2.080441    1.045220
C     -0.129383   -0.315055   -1.452784
C     -2.414569    0.598755   -1.427596
C      1.162103    1.359862    1.507277
C      1.547087   -1.984534   -0.244007
C     -1.126124    0.337645   -0.625062
C      1.147319   -0.763296   -0.970301
C     -0.645832    1.732816   -0.270974
O      2.090575    0.018647   -1.208919
O     -0.739124    2.509673   -1.205631
H     -3.050098    1.633375    0.373886
H     -3.951003    2.092116   -1.128161
H     -4.261998    0.509376   -0.409968
H     -2.717331   -1.565044   -1.648847
H     -3.940149   -0.452767   -2.454284
H     -2.327632   -0.680098   -3.144063
H      2.837082    2.751288    0.997610
H      1.480726    3.530017    1.731764
H      2.524868    2.590379    2.747960
H      0.572948   -3.111862    1.335647
H     -0.585982   -2.363674    0.098169
H      0.313080   -3.826314   -0.252466
H      3.424833   -0.605383    2.213761
H      2.116306   -1.614532    2.732023
H      0.516846   -0.718906    1.425813
H      2.902552   -2.842622    1.125213
H      3.639457   -1.552564    0.194416
H     -0.907579    2.114346    1.816673
H      0.107921    3.189124    0.919050
H      0.036405    0.273124   -2.409341
H     -0.635007   -1.249923   -1.883724
H     -2.091945    1.355588   -2.201434
H      2.004533   -2.645573   -1.067315
H     -1.450796   -0.117836    0.292459
