31

C      3.954302    0.386692    0.978654
C     -0.765940   -0.004418   -1.776940
C     -2.656746   -1.233118    0.169035
C      2.507362    0.211374    1.131831
C      0.263011   -0.456902    0.478729
C     -0.721836    0.299408   -0.329616
C      1.689680   -0.343636    0.194384
C      2.366889   -0.823013   -0.984063
C     -3.031224    1.229694   -0.026858
C     -2.117372    0.150140    0.322896
O      1.820004   -1.390524   -1.958861
O      3.771899   -0.692469   -1.158457
O     -3.533022    1.396301   -1.181487
O     -3.449354    2.206546    0.903781
O     -1.826521    0.304743    1.704987
H      4.248321    1.094339    0.173558
H      4.543028   -0.556319    0.982422
H      4.303707    0.895413    1.937214
H     -1.739504    0.401240   -2.209637
H      0.071194    0.513594   -2.289449
H     -0.763063   -1.082406   -1.985043
H     -2.847647   -1.467865   -0.904148
H     -1.954065   -1.941990    0.633066
H     -3.626906   -1.270320    0.685746
H      1.998765    0.528025    2.035442
H      0.039524   -1.578434    0.404185
H      0.034924   -0.267837    1.568003
H     -0.501384    1.423285   -0.257976
H      4.178762   -0.678314   -2.096502
H     -3.895508    3.066054    0.607765
H     -2.361281   -0.319282    2.247337
