31

C      4.061459    0.766212    0.015548
C     -0.894733   -1.232137    1.062657
C     -2.669977   -0.420599   -1.281087
C      2.655833    0.761035   -0.403786
C      0.422122   -0.078939   -0.721449
C     -0.702687   -0.033314    0.252212
C      1.791920   -0.253782   -0.237494
C      2.334788   -1.448427    0.349188
C     -2.929974    1.098340    0.584277
C     -1.958218    0.549932   -0.364235
O      3.564831   -1.484311    0.711653
O      1.631407   -2.611720    0.563141
O     -3.485529    0.389286    1.437283
O     -3.258309    2.437691    0.554059
O     -1.499676    1.568157   -1.254588
H      4.216832    0.663838    1.117813
H      4.683356    0.050412   -0.560293
H      4.485555    1.800171   -0.196511
H     -0.191203   -1.354812    1.911003
H     -1.899160   -1.254396    1.596369
H     -0.918046   -2.193061    0.507598
H     -2.859381   -1.394686   -0.788818
H     -2.166369   -0.521644   -2.261722
H     -3.668948    0.018012   -1.487865
H      2.263545    1.645438   -0.890907
H      0.410964    0.806231   -1.415724
H      0.229479   -0.929674   -1.489169
H     -0.386481    0.782760    1.005748
H      1.866796   -3.153732    1.397781
H     -4.110319    2.825794    0.964486
H     -1.019874    2.201922   -0.677168
