47

C     -1.423636   -0.694933   -1.647979
C     -3.325921   -1.159721    3.617895
C     -0.386992   -2.805044    1.856787
C      4.777331   -0.702114   -2.703419
C     -4.412209    1.291937   -3.163805
C      3.318796    2.256586    1.021954
C      1.402980    0.699883    0.786371
C      4.570525    2.723980    0.657306
C      0.788159   -0.305322    0.231635
C      3.406955    0.574173   -0.619460
C     -3.464086   -0.206988    1.363972
C     -1.602188   -0.188750   -0.223084
C      2.716205    1.184551    0.399637
C     -2.987091    0.022341    0.164203
C      5.239089    2.097067   -0.363188
C     -0.613141   -0.754791    0.708077
C      4.675699    1.022552   -1.012996
C     -3.956490    0.537373   -0.868823
Cl     6.823112    2.628940   -0.882376
O     -5.155386    0.733870   -0.591716
O     -2.732587   -0.676060    2.430984
O     -0.511594   -2.120708    0.707270
O      5.359154    0.394442   -2.043802
O     -3.542401    0.808635   -2.161542
H     -2.261283   -1.307946   -1.983294
H     -1.323921    0.173428   -2.312167
H     -0.448017   -1.229144   -1.676817
H     -3.942746   -0.382816    4.114218
H     -3.943845   -2.077846    3.409118
H     -2.500199   -1.515079    4.276768
H     -0.287980   -3.908592    1.563482
H      0.485669   -2.511531    2.479489
H     -1.245862   -2.828386    2.549053
H      5.536418   -1.175690   -3.383795
H      3.935799   -0.365993   -3.327286
H      4.475433   -1.501748   -1.990050
H     -4.241862    0.738915   -4.114631
H     -4.312349    2.389724   -3.326206
H     -5.479979    1.132704   -2.897713
H      2.784520    2.738191    1.819073
H      0.916683    1.245112    1.614568
H      5.056385    3.562752    1.135215
H      1.227785   -0.847198   -0.565527
H      3.041059   -0.268107   -1.177292
H     -4.553112    0.005418    1.496410
H     -1.217483    0.926422   -0.338115
H     -0.665397   -0.354488    1.706257
