160

C     15.376432    1.423932    0.412277
C     16.928955   -2.844116    1.520645
C      2.842783    0.000201   -4.394203
C     12.393604    1.141942    1.967864
C     12.163600   -3.518573    1.678387
C    -12.755214   -1.336368   -1.776922
C      1.045854    3.206270   -0.343453
C     -1.969099    3.489694    0.730084
C      6.837535    1.317854    0.691722
C     16.059484    0.423058    0.932822
C     16.359459   -0.865060    0.294359
C     14.588965   -2.428091    1.257944
C      0.809345    0.883505   -3.247695
C     -4.500516    2.948598   -0.368643
C     13.574386   -1.734964    0.814526
C      0.827242    2.176381   -2.543165
C     -3.300076    2.696353   -1.162358
C    -14.361620   -1.471561    0.036708
C    -14.352734   -2.975065   -0.035927
C     10.734518    0.637663    0.275858
C     -5.023066   -0.394431    1.154334
C     -7.914276    1.566067    2.469470
C     -9.727271   -1.441423    1.095476
C      3.254188   -0.966973    0.288340
C    -12.018939    1.406229    0.130955
C      7.819566   -1.397308    1.610679
C     -0.588608    0.833098    0.752954
C     15.959389   -2.052843    1.033964
C      2.002186   -0.006505   -3.127743
C     11.583063    0.243396    1.441915
C     -4.724356    2.105574    0.855605
C     -4.220029    0.749450    0.615134
C     -6.569823    1.241486    1.966729
C     -6.458098   -0.018354    1.143878
C     -9.023299    0.691291    2.033217
C     -8.609746   -0.468016    1.163719
C    -11.134410    0.655047    1.103817
C      9.242949   -1.185804    1.100288
C      9.314452    0.226587    0.603652
C    -10.897726   -0.706646    0.456513
C      2.312752   -0.342853   -0.652995
C      4.689747   -1.053403   -0.119295
C     -1.964582    1.044490    0.143404
C      0.373190    0.893385   -0.438934
C    -13.181208    0.605984   -0.333708
C      6.867343   -1.106594    0.493482
C      2.856648    0.184117   -1.933291
C      4.933065    0.005608   -1.166138
C      6.375286    0.169790   -1.508741
C     11.426686   -1.154655    1.917925
C     12.163739   -2.151316    1.065143
C    -13.000846   -0.874374   -0.353304
C      0.219585    2.193379   -1.152438
C     -2.006890    2.455411   -0.366751
C      7.190112    0.203893   -0.235519
O      6.876149   -0.843649   -2.308617
O     11.583949   -2.265446   -0.209697
O    -17.007491   -5.567660    1.368296
O    -16.199075   -5.504674   -1.067995
O    -14.542002   -5.767701    0.671538
O    -14.780600    3.388854   -2.307008
O    -15.741723    1.737590   -0.504776
O    -15.744545    1.080169   -2.841775
O    -15.629842   -3.393998    0.335123
O     -6.063637    2.248042    1.168838
O     -7.364886   -0.993909    1.500155
O     -9.989821    1.389964    1.277016
O     -2.886800    0.701825    1.079614
O      1.672515    0.721057    0.029483
O      5.546185   -0.955744    0.951966
O     10.104139   -1.498022    2.117415
O      4.125393   -0.380977   -2.250500
O    -12.087601   -1.383425    0.533538
O      8.543119    0.286187   -0.564530
O    -13.470114    1.035809   -1.650050
O     -1.020382    2.700621   -1.247069
S    -15.811181   -5.043384    0.312610
S    -14.946092    1.782110   -1.776908
H     14.971501    1.342259   -0.585797
H     15.190176    2.345910    0.933411
H     16.689351   -3.733168    2.074057
H     17.939281   -2.583793    1.353848
H      3.086662    1.061012   -4.607963
H      3.799010   -0.516230   -4.172315
H      2.293490   -0.493654   -5.224112
H     13.041914    0.918121    2.823045
H     12.423081    2.135771    1.543842
H     12.732634   -4.260094    1.091853
H     12.566081   -3.536854    2.714718
H     11.107682   -3.934862    1.687102
H    -12.262818   -0.535238   -2.383715
H    -12.168226   -2.250620   -1.848075
H    -13.731205   -1.539614   -2.302946
H      2.108472    3.005096   -0.586485
H      0.957436    3.046972    0.738068
H      0.868087    4.244765   -0.687537
H     -2.855640    4.192639    0.683996
H     -1.112125    4.214246    0.620418
H     -1.856144    3.066685    1.732768
H      5.840830    1.739678    0.581571
H      7.547476    2.191563    0.597091
H      6.955396    0.984669    1.764679
H     16.449555    0.558146    1.953718
H     17.458377   -0.864603    0.071710
H     15.888068   -0.845135   -0.727262
H     14.358988   -3.348951    1.835309
H     -0.162229    0.354055   -3.016178
H      0.692092    1.090801   -4.357848
H     -5.379952    2.702264   -1.046222
H     -4.703887    4.036137   -0.131601
H     13.787581   -0.844168    0.242319
H      1.868113    2.621134   -2.533199
H      0.274995    2.933355   -3.186787
H     -3.414984    1.885961   -1.918263
H     -3.116729    3.623487   -1.787294
H    -15.071237   -1.110181   -0.735364
H    -14.574187   -1.085647    1.042596
H    -14.145034   -3.272884   -1.073490
H    -13.613269   -3.371286    0.691275
H     10.777928    1.706284    0.061847
H     11.014828    0.089177   -0.646381
H     -4.687963   -0.726331    2.162745
H     -4.906069   -1.301505    0.501837
H     -7.921532    1.587539    3.599251
H     -8.166673    2.629422    2.187549
H     -9.993656   -1.865092    2.072419
H     -9.435562   -2.236740    0.351313
H      2.917577   -2.029322    0.478543
H      3.238575   -0.500237    1.313835
H    -12.371306    2.321728    0.684294
H    -11.389067    1.798542   -0.694913
H      7.624033   -0.808711    2.516161
H      7.753796   -2.507937    1.804600
H     -0.347858    1.559473    1.524898
H     -0.508844   -0.185076    1.203530
H      1.599635   -1.064232   -3.071609
H     -4.193075    2.543219    1.752966
H     -4.125409    0.562456   -0.494650
H     -5.853135    1.135444    2.833537
H     -6.717636    0.260333    0.078989
H     -9.601037    0.248637    2.891972
H     -8.479821   -0.039474    0.126850
H    -11.680255    0.445761    2.045636
H      9.338860   -1.848857    0.207963
H      8.957916    0.947547    1.376898
H    -10.576987   -0.486652   -0.585672
H      1.459555   -1.033335   -0.921178
H      4.901654   -2.042184   -0.623067
H     -2.022286    0.375872   -0.736863
H      0.131528   -0.001072   -1.038745
H    -14.077128    0.914048    0.265014
H      6.895640   -1.937647   -0.240209
H      3.143323    1.253396   -1.750269
H      4.575480    1.003882   -0.807755
H      6.530106    1.148954   -2.004145
H     11.924544   -1.190427    2.928343
H      6.265363   -1.042571   -3.061580
H     11.744154   -3.171544   -0.592730
H    -17.913290   -5.418241    1.009178
H    -14.543900    3.939651   -1.507667
