50

C      4.641598   -0.896062   -0.762628
C      3.608021   -0.812507    1.410637
C     -3.670314    1.614207   -0.304667
C     -0.796366   -4.316638   -1.426752
C      0.149112    3.746352   -1.291033
C     -1.907163   -1.626570    0.887363
C     -0.946082    1.710529    1.742873
C     -2.701040   -0.631868    0.091886
C     -2.275704    1.056877    1.772560
C     -1.782043   -2.837449    0.127690
C     -0.764573    2.822014    0.811782
C      0.307918   -2.013752   -1.014336
C      0.489349    1.313059   -0.560265
C      1.160667   -1.283201   -0.405879
C      1.909649    1.078472   -0.148993
C      3.544843   -0.681553   -0.053379
C     -2.867388    0.635071    0.516340
C     -0.772311   -2.965367   -0.701624
C     -0.068387    2.627931   -0.295425
C      2.262816   -0.313638   -0.743916
H      4.633469   -0.808712   -1.845582
H      5.575641   -1.162603   -0.302540
H      4.470703   -0.155255    1.735819
H      2.700569   -0.568565    1.955108
H      3.971320   -1.847804    1.635292
H     -2.980084    2.059863   -1.066409
H     -4.409147    1.018899   -0.880686
H     -4.112266    2.372424    0.343336
H     -1.825185   -4.573440   -1.691455
H     -0.222976   -4.218046   -2.360873
H     -0.412234   -5.094054   -0.735866
H      0.963886    4.399844   -0.866651
H     -0.744829    4.392817   -1.342705
H      0.408087    3.349050   -2.277203
H     -2.567417   -1.832907    1.783908
H     -1.047808   -1.134081    1.277585
H     -0.108173    0.982954    1.748792
H     -0.835023    2.185264    2.776026
H     -3.174423   -0.878547   -0.851481
H     -3.007484    1.743762    2.293353
H     -2.194903    0.185683    2.479724
H     -2.554263   -3.614629    0.285719
H     -1.199922    3.803795    1.028507
H      0.262371   -2.032405   -2.186361
H      0.498830    1.197096   -1.691241
H     -0.083324    0.452496   -0.214877
H      1.254078   -1.225547    0.756383
H      2.578945    1.836569   -0.594030
H      2.118004    1.025090    0.906602
H      2.520955   -0.084920   -1.750427
