160

C    -16.037144    3.308278    0.922288
C    -12.682626    3.232895   -1.383455
C     -1.899787   -2.357836   -3.821075
C    -12.206839   -3.616364    0.682882
C    -12.676253   -1.335806    2.636608
C     11.942445   -0.029257   -2.144495
C     -1.707202    1.918425   -0.468597
C      0.867256    2.987380    1.138004
C     -6.988096   -0.588701   -1.364595
C    -15.049146    3.750279    0.188708
C    -13.633683    3.759678    0.743990
C    -12.703214    1.376858    0.102966
C     -0.402846   -0.628660   -2.815141
C      3.509969    3.329580    0.534440
C    -12.831931    0.687252    1.230013
C     -0.846488    0.714467   -2.403377
C      2.646915    2.731501   -0.507642
C     13.896232   -0.693281   -0.933508
C     14.094594   -2.174851   -1.308989
C    -10.269003   -3.265404   -0.663704
C      4.844448   -0.030828    1.779447
C      7.857767    2.230523    1.908563
C      9.430256   -1.015496    0.766213
C     -3.068625   -2.271195    0.767407
C     12.415456    1.088667    1.416580
C     -7.754631   -1.242107    1.181157
C      0.384617    0.169413    1.181107
C    -12.940580    2.739489   -0.128181
C     -1.294135   -1.768338   -2.534988
C    -11.368042   -2.706915    0.235602
C      4.291013    2.389814    1.367420
C      3.881369    0.967466    1.143462
C      6.447282    1.773615    1.934586
C      6.222606    0.396347    1.354557
C      8.854230    1.089742    2.026627
C      8.390089    0.005149    1.094275
C     11.028858    0.592597    1.635339
C     -9.099002   -1.767777    0.791699
C     -9.217423   -2.194886   -0.651590
C     10.678429   -0.229181    0.381384
C     -2.044024   -1.719195   -0.130698
C     -4.444829   -2.392417    0.224539
C      1.705188    0.744576    0.709410
C     -0.410890   -0.100149   -0.076533
C     12.684311    1.193034   -0.102371
C     -6.647452   -2.077420    0.533501
C     -2.396076   -1.567163   -1.570740
C     -4.535490   -2.091558   -1.247724
C     -5.794514   -2.682045   -1.764504
C    -11.339911   -1.266002    0.490346
C    -12.524331   -0.782567    1.248445
C     12.589852   -0.117744   -0.767098
C     -0.506540    1.099465   -0.968467
C      1.381894    2.062780    0.051275
C     -6.909091   -2.026285   -0.957679
O     -5.834404   -4.054767   -1.715915
O    -13.662864   -1.314101    0.520601
O     16.019666   -4.686686   -0.543785
O     17.863946   -2.951927   -1.343723
O     16.677412   -2.563503    0.693224
O     12.609248    4.693802   -1.551174
O     14.074507    3.456044    0.208044
O     11.944410    4.309517    0.933487
O     15.468545   -2.104941   -1.473948
O      5.635750    2.637466    1.218187
O      7.214982   -0.506102    1.605527
O     10.093013    1.619172    1.693566
O      2.603054    0.826557    1.733217
O     -1.703006   -0.429377    0.339095
O     -5.395593   -1.609291    0.866877
O    -10.124769   -0.863407    1.079741
O     -3.383245   -2.550782   -1.843314
O     11.737620   -1.011837    0.010238
O     -8.058296   -2.739141   -1.187010
O     11.873835    2.196445   -0.562669
O      0.554938    1.920318   -0.997229
S     16.459077   -3.166949   -0.796815
S     12.665171    3.658355   -0.248352
H    -15.803435    2.960166    1.950774
H    -17.075452    3.290295    0.584915
H    -12.175381    2.536804   -2.076705
H    -12.973568    4.194615   -1.677092
H     -2.424588   -1.591318   -4.406505
H     -1.026768   -2.743436   -4.398117
H     -2.525827   -3.212700   -3.518409
H    -13.054004   -3.535515    1.316587
H    -12.000887   -4.673167    0.369284
H    -13.599857   -1.917331    2.777940
H    -12.758160   -0.490164    3.355420
H    -11.820088   -2.012248    2.891388
H     12.806205    0.168272   -2.881890
H     11.360397    0.907226   -2.213875
H     11.389708   -0.884949   -2.461841
H     -2.604928    1.756394   -1.121330
H     -2.034766    1.578905    0.541308
H     -1.502378    3.003399   -0.519065
H     -0.161569    2.759332    1.453602
H      0.860674    4.047827    0.806583
H      1.497881    2.828205    2.053597
H     -6.829321   -0.476288   -2.455870
H     -6.245040   -0.026614   -0.756391
H     -7.972638   -0.126540   -1.147922
H    -15.213043    4.149772   -0.820151
H    -13.623103    3.514507    1.785683
H    -13.247509    4.764521    0.512532
H    -12.403202    0.769534   -0.788959
H      0.658617   -0.762964   -2.445577
H     -0.246164   -0.607989   -3.942051
H      4.198337    4.049729   -0.004790
H      2.868313    4.028523    1.148430
H    -13.176328    1.217461    2.075351
H     -0.365921    1.467988   -3.106305
H     -1.941993    0.878951   -2.629298
H      3.168392    2.094031   -1.227917
H      2.238756    3.589330   -1.124294
H     14.498085   -0.532646    0.029094
H     14.463228   -0.116889   -1.717789
H     13.821966   -2.855016   -0.514343
H     13.538543   -2.356674   -2.224934
H    -10.780314   -3.378352   -1.640350
H     -9.911899   -4.226795   -0.247347
H      4.564897   -1.032404    1.389619
H      4.777576   -0.054546    2.867391
H      8.032386    2.865126    2.820841
H      8.055285    2.863425    1.030260
H      9.086496   -1.568708   -0.147172
H      9.688650   -1.675996    1.595959
H     -3.151512   -1.675981    1.725519
H     -2.711167   -3.284660    1.118905
H     13.137569    0.348522    1.802123
H     12.575317    2.100956    1.816798
H     -7.653094   -1.298868    2.274759
H     -7.595516   -0.195724    0.880512
H      0.576575   -0.829805    1.659656
H     -0.128286    0.776255    1.919930
H     -0.660480   -2.618223   -2.139448
H      4.051235    2.616856    2.448696
H      3.853828    0.681629    0.062993
H      6.089701    1.716422    2.998434
H      6.184085    0.540130    0.234448
H      8.876437    0.703595    3.059747
H      8.119790    0.522794    0.126749
H     10.945880   -0.126733    2.465832
H     -9.308466   -2.672681    1.421502
H     -9.552798   -1.383265   -1.320393
H     10.358720    0.443500   -0.430205
H     -1.078129   -2.297997   -0.091544
H     -4.814750   -3.456183    0.332711
H      2.106787    0.050684   -0.055002
H      0.034294   -0.988941   -0.530512
H     13.752658    1.596835   -0.096312
H     -6.805175   -3.124428    0.876544
H     -2.936229   -0.598717   -1.675966
H     -4.581200   -0.982130   -1.457049
H     -5.951160   -2.347175   -2.827852
H    -11.416569   -0.786260   -0.540515
H     -5.956335   -4.429881   -2.622211
H    -13.367958   -1.607833   -0.385158
H     15.120438   -4.807893   -0.231645
H     12.661021    5.625405   -1.166428
