38

C     -2.714025    0.108458    0.530355
C     -2.018368   -1.994740   -0.508848
C     -0.762398   -1.067058    1.316478
C      2.456297   -0.902134   -1.034925
C      3.247719   -2.013719   -0.820984
C      1.297155    1.115539   -0.087005
C      3.434701   -1.469409    1.462115
C     -0.908343    4.597176   -0.078634
C     -1.762353    2.777724   -0.918143
C      2.132373   -0.047473   -0.010203
C      3.750944   -2.313813    0.440516
C      2.653009   -0.372874    1.249681
C      0.041462    1.183901   -0.503991
C     -0.637792   -0.027723   -0.945389
C     -1.561188   -0.672810    0.050646
Cl     4.757332   -3.721079    0.730794
Cl     2.287075    0.671850    2.601555
N     -1.996775    4.106094   -0.686255
N     -0.046573    3.580886    0.047347
N     -0.558729    2.448585   -0.466097
O     -1.403782    0.212661   -2.115792
H     -3.294152   -0.590608    1.219302
H     -3.416628    0.312435   -0.287343
H     -2.481413    0.973982    1.180544
H     -1.071909   -2.603207   -0.638018
H     -2.636237   -2.536291    0.250012
H     -2.509628   -1.926148   -1.471383
H      0.049459   -1.757786    1.047868
H     -0.495554   -0.202543    1.918437
H     -1.498239   -1.674250    1.914017
H      2.130722   -0.727468   -2.048177
H      3.520873   -2.706504   -1.605159
H      1.812260    2.046594    0.255496
H      3.823977   -1.696042    2.451242
H     -0.787622    5.627390    0.235296
H     -2.533994    2.183464   -1.423192
H      0.038047   -0.859552   -1.255136
H     -2.337703   -0.063508   -1.997027
