51

C      4.698956   -0.859067   -1.317013
C     -2.074243    0.858994   -1.482041
C      2.086421    1.426211   -0.659895
C      4.562669   -0.549057    0.105400
C     -2.211333    1.637227    1.425282
C     -0.905856    1.154571    1.987396
C     -4.240881   -1.307076   -0.880185
C      0.139355   -0.946154   -1.004904
C     -2.735018   -1.419787   -0.828175
C      1.617690   -1.034160   -0.764935
C     -4.033211    0.048513    1.193651
C      2.041823    0.862999    2.307985
C     -2.856600    0.445925    0.748020
C     -4.662770   -1.092087    0.551220
C     -0.039279    0.673825    0.849214
C      3.460209   -0.133960    0.699528
C     -0.701901   -0.482345    0.111573
C      1.269777    0.169556    1.259452
C      3.345682    0.171686    2.124990
C     -2.095337   -0.160832   -0.361393
C      2.178496    0.090521    0.017853
O     -5.470337   -1.802638    1.157525
O      4.184095   -0.101267    2.995454
H      4.177724   -0.197690   -2.006777
H      4.319113   -1.887905   -1.486192
H      5.798936   -0.946222   -1.586411
H     -1.090093    1.335024   -1.616916
H     -2.810609    1.677297   -1.320077
H     -2.394197    0.357125   -2.438163
H      1.891731    2.234312    0.090895
H      3.019187    1.730529   -1.176354
H      1.302871    1.383356   -1.443516
H      5.444291   -0.664635    0.758813
H     -2.031608    2.437635    0.689569
H     -2.842448    2.011357    2.246941
H     -1.026700    0.430252    2.790258
H     -0.384204    2.049649    2.417524
H     -4.567865   -0.395437   -1.427519
H     -4.713000   -2.223859   -1.264378
H     -0.196030   -1.989382   -1.282435
H     -0.012851   -0.362739   -1.959059
H     -2.404566   -1.659697   -1.869977
H     -2.500264   -2.252003   -0.133980
H      2.058312   -1.220297   -1.757484
H      1.796635   -1.973907   -0.176941
H     -4.505261    0.575753    2.025880
H      1.591135    0.651024    3.295679
H      2.175431    1.944158    2.161056
H     -0.015055    1.516010    0.106547
H     -0.801860   -1.307410    0.858964
H      1.162839   -0.903897    1.598397
