56

C      3.881281   -1.792194   -0.183664
C      3.980450    0.173416   -1.718757
C      0.766678    4.470732    0.297987
C     -5.047123    0.605113   -0.585078
C     -0.237661   -3.782928    0.943194
C     -1.661341    1.622144   -0.541274
C     -1.042505    2.959371   -0.365318
C     -2.777099    1.349852    0.460577
C      0.984838    1.928973    0.553709
C      1.669375    1.289772   -0.617983
C      1.497887   -0.602571    0.974178
C      0.697833   -1.601291    1.228269
C     -3.384379   -0.961024    0.161056
C     -1.207021   -2.026984   -0.350650
C      3.443174   -0.371963   -0.421574
C      0.178327    3.112580    0.136821
C     -3.696534    0.310544    0.031909
C      1.913072   -0.213644   -0.357083
C     -2.144100   -1.461762    0.725609
C      0.121090   -2.450301    0.217189
O     -1.502222   -0.719520    1.667980
O      0.931549   -2.886797   -0.805624
H      3.343018   -2.166757    0.718605
H      3.729336   -2.452373   -1.060068
H      4.952788   -1.756651    0.102271
H      4.417802    1.206943   -1.593894
H      4.828563   -0.439071   -2.119610
H      3.185322    0.293215   -2.493810
H      0.262066    5.224069   -0.336332
H      1.850197    4.488577    0.029579
H      0.719751    4.713104    1.379392
H     -5.851892    0.098042   -0.050527
H     -5.059413    0.345741   -1.658074
H     -5.175701    1.712264   -0.524907
H     -0.885308   -4.375185    0.273864
H      0.737209   -4.278771    1.142956
H     -0.704189   -3.581235    1.907673
H     -0.873832    0.889303   -0.429232
H     -2.139951    1.522511   -1.548936
H     -1.603825    3.827863   -0.654760
H     -3.371283    2.324605    0.396797
H     -2.454101    1.356097    1.503500
H      0.383098    1.209634    1.150115
H      1.756721    2.293923    1.263687
H      2.632421    1.834370   -0.758298
H      1.125858    1.458197   -1.567649
H      1.908371    0.013316    1.802339
H      0.480685   -1.761998    2.310449
H     -4.106602   -1.740128   -0.184055
H     -1.669750   -2.962821   -0.790952
H     -1.186775   -1.320404   -1.165297
H      3.913800    0.239845    0.402208
H      1.509514   -0.719761   -1.214283
H     -2.419084   -2.418893    1.290969
H     -1.939672   -0.809088    2.559004
H      0.339289   -3.220001   -1.534201
