55

C      5.156241   -0.858571    3.523711
C     -4.548932   -1.639349   -0.299995
C      3.128211    1.551470    0.038685
C     -0.240195    0.700462   -2.798641
C      2.371430   -1.557767   -3.049239
C      3.869954   -0.690876    2.786795
C     -3.922006   -0.286335   -0.569331
C      3.816497   -0.969038    1.492420
C      2.525895   -0.813548    0.696436
C     -4.317163    0.210790    1.729274
C     -4.860112    1.346485    2.089882
C     -1.500805    1.561784   -0.476672
C      2.745862    0.167684   -0.393895
C      0.576872    0.839233   -1.518721
C     -3.239581    0.145520    0.714754
C     -0.342782    0.543563   -0.373676
C     -2.504471    1.424118    0.593944
C     -4.408210    2.588530    1.492081
C      1.854876    0.113730   -1.594249
O     -0.767405   -0.754954   -0.392059
O     -4.953009    3.679941    1.859585
O      1.676990   -1.242365   -1.917775
O     -3.402124    2.545703    0.544280
H      5.746249   -1.692213    3.086207
H      5.752489    0.063428    3.336577
H      4.973548   -1.031355    4.610695
H     -5.469674   -1.459310    0.293762
H     -4.782339   -2.154673   -1.249898
H     -3.838329   -2.247005    0.329409
H      3.040259    2.299693   -0.755428
H      4.197040    1.595599    0.386997
H      2.545219    1.850426    0.957249
H     -0.718336    1.670512   -3.066829
H      0.336679    0.393922   -3.667492
H     -1.057165   -0.012814   -2.588201
H      3.479558   -1.369387   -2.904401
H      2.114484   -1.032769   -3.972941
H      2.343897   -2.674303   -3.228923
H      3.000048   -0.348823    3.301806
H     -3.257212   -0.389432   -1.427566
H     -4.794268    0.396170   -0.794421
H      4.726619   -1.312470    1.017878
H      1.716362   -0.558664    1.387703
H      2.328374   -1.846043    0.330270
H     -4.690312   -0.701412    2.208197
H     -5.670932    1.364947    2.856699
H     -1.911069    1.472676   -1.502117
H     -1.021064    2.558521   -0.405815
H      3.780425   -0.221026   -0.862945
H      0.839626    1.953277   -1.498241
H     -2.576485   -0.690319    1.020962
H      0.155918    0.727720    0.620061
H     -1.960583    1.574957    1.574756
H      2.460773    0.581741   -2.435986
H     -0.505832   -1.313285   -1.135618
