54

C     -1.491747   -4.192542    0.686826
C     -0.167845   -3.670781   -1.281076
C     -0.283179    2.436487    0.415616
C     -2.509281    2.531832   -0.288197
C     -0.161880    3.817080    0.303939
C     -2.406465    3.921747   -0.404942
C      1.882491   -1.025529   -0.452895
C      0.824615   -0.248471   -0.464590
C     -6.409406    1.195887    1.407631
C     -6.181962    0.421314    0.292433
C      4.357032   -1.145701   -0.189547
C      5.664960    0.877394    0.143807
C     -4.118659    0.940436    1.938831
C     -0.427202   -3.195528    0.132850
C     -1.431193    1.744715    0.131217
C     -1.231146    4.571636   -0.109840
C      5.611725   -0.412067   -0.679644
C      3.198940   -0.484637   -0.910856
C     -0.510743   -0.609872   -0.060210
C     -3.947803    0.163897    0.797194
C      4.329644    1.521431   -0.024652
C     -1.036560   -1.848500    0.192590
C     -1.559665    0.292907    0.135659
F     -1.131657    5.910395   -0.223316
N     -5.333558    1.430734    2.210376
N     -4.984289   -0.096482   -0.029005
N     -2.354767   -1.663210    0.521431
N     -2.671783   -0.387334    0.488277
O      5.408867   -0.012174   -2.001963
O      4.117686    2.672387    0.463083
O      3.290943    0.901792   -0.705449
H     -1.137968   -5.212209    0.432842
H     -2.419935   -3.922173    0.185209
H     -1.526580   -4.053806    1.767605
H      0.713320   -3.259990   -1.766255
H     -0.053326   -4.791787   -1.241545
H     -1.083913   -3.463128   -1.892847
H      0.586025    1.920990    0.803267
H     -3.462955    2.114340   -0.559272
H      0.771311    4.316790    0.539451
H     -3.267762    4.507222   -0.734716
H      1.865968   -2.020951   -0.126941
H      1.008067    0.756600   -0.887877
H     -7.388026    1.597862    1.637448
H     -7.025594    0.226141   -0.353599
H      4.210298   -0.983374    0.906910
H      4.417159   -2.224533   -0.390903
H      6.485340    1.533051   -0.213297
H      5.763276    0.643693    1.221543
H     -3.274296    1.127411    2.573185
H      0.432159   -3.355491    0.795153
H      6.513714   -1.007357   -0.575704
H      3.334074   -0.717850   -1.989896
H      6.203527   -0.090694   -2.565338
