55

C      6.425883    2.175985    0.618179
C     -5.085469   -0.867756   -2.536201
C      2.733664   -2.576141   -0.487236
C      1.576601    1.158556    1.720541
C     -0.059709   -2.494280    0.229725
C      5.826816    0.874507    0.263940
C     -3.964055   -0.760215   -1.491735
C      4.619288    0.461429    0.767822
C      4.043974   -0.822925    0.408628
C     -5.241908    0.988392   -0.445727
C     -5.488900    0.900591    0.848264
C     -1.459859    0.576584   -0.511374
C      2.780375   -0.993067   -0.277880
C      0.919386    0.657876    0.439541
C     -3.913433    0.679279   -1.028384
C     -0.525736    0.885838    0.569703
C     -2.868548    0.951905    0.002152
C     -4.404974    0.479990    1.754572
C      1.430350   -0.685688    0.118280
O     -0.682636    2.274380    0.851564
O     -4.617833    0.388459    2.988754
O      0.522968   -1.513732   -0.578759
O     -3.170726    0.200893    1.162804
H      7.253013    2.059134    1.368997
H      6.828025    2.625836   -0.313666
H      5.618984    2.802069    1.065568
H     -5.188187   -1.918178   -2.877601
H     -4.808876   -0.258013   -3.420421
H     -5.995343   -0.464225   -2.092501
H      3.654766   -2.825245   -1.097744
H      1.898871   -2.868168   -1.073515
H      2.853290   -3.083771    0.446708
H      0.772584    1.402426    2.496647
H      2.084578    2.113177    1.600829
H      2.138960    0.351042    2.226493
H     -0.759032   -3.130442   -0.349807
H     -0.769275   -1.909649    0.902641
H      0.591305   -3.003511    0.919889
H      6.351447    0.219745   -0.414666
H     -3.048391   -1.059085   -2.053843
H     -4.194960   -1.453916   -0.675571
H      4.194359    1.153355    1.443943
H      4.162273   -1.565478    1.287127
H      4.830173   -1.307247   -0.290540
H     -6.075363    1.304862   -1.080131
H     -6.487012    1.139150    1.229149
H     -1.579181   -0.468024   -0.796576
H     -1.344555    1.256185   -1.392103
H      2.996632   -0.693627   -1.377117
H      1.329270    1.359805   -0.379249
H     -3.777166    1.330052   -1.923265
H     -0.883739    0.404081    1.518192
H     -2.892030    2.026616    0.232414
H      1.350962   -1.207280    1.194460
H     -0.501899    2.727464   -0.008704
