43

C     -1.246430   -0.266150   -1.709840
C     -3.627890   -3.106225    1.238291
C     -0.161613    2.201849    1.612606
C     -4.700238    3.134972    0.263023
C      6.267124   -1.295693   -0.925064
C      6.091149   -0.776079    0.339333
C      5.196326   -1.435811   -1.766974
C      4.815936   -0.401657    0.735966
C      3.931526   -1.048946   -1.333510
C      2.416784   -0.104910    0.428284
C      1.288757   -0.172995   -0.252996
C     -3.225444   -0.679357    1.115878
C     -1.172304   -0.459836   -0.195676
C      3.712020   -0.526978   -0.082529
C     -2.447106    0.091775    0.329927
C     -0.003054    0.280046    0.339414
C     -2.963575    1.417337    0.025686
O     -2.377175    2.246051   -0.702495
O     -2.860202   -1.954270    1.434040
O     -0.169283    1.616487    0.352022
O     -4.192938    1.860320    0.549255
H     -0.881177    0.768812   -1.900957
H     -0.631331   -1.013563   -2.211671
H     -2.287304   -0.326976   -2.055238
H     -4.591051   -3.093677    1.773010
H     -3.856162   -3.295834    0.171186
H     -3.046757   -3.965556    1.671004
H     -0.309952    3.300322    1.440490
H     -0.998633    1.852717    2.216907
H      0.829310    2.117101    2.112721
H     -5.087213    3.576443    1.199752
H     -3.964050    3.825732   -0.179956
H     -5.520074    3.002670   -0.490957
H      7.253300   -1.588228   -1.239504
H      6.917007   -0.645419    1.047078
H      5.365098   -1.845070   -2.749334
H      4.681127    0.009843    1.739306
H      3.106543   -1.165817   -2.005207
H      2.316218    0.302336    1.435915
H      1.334598   -0.568562   -1.254963
H     -4.139753   -0.269803    1.487074
H     -1.149694   -1.551866    0.024611
H      0.087581   -0.045534    1.431291
