34

C      3.555663    1.338187    0.496197
C      4.843539    1.475357    0.414907
C     -1.319150    0.469427    0.627140
C     -1.512880   -1.089768   -1.110422
C      1.398207    0.168769    0.331184
C     -3.309472    1.595894   -0.403609
C      2.803822    0.147201    0.187771
C     -2.800479    0.343933    0.295230
C     -0.769625   -0.857889    0.212789
C     -2.945132   -0.801859   -0.652513
C      3.341177   -1.035129   -0.243075
C      1.235485   -2.016056   -0.352736
Br     5.687760    3.155708    0.871115
N      2.549944   -2.107114   -0.509550
N      0.641034   -0.891736    0.065066
O     -3.147316    2.725298    0.398532
O     -3.353560   -1.932652    0.068374
O      4.717047   -1.163206   -0.417718
O      0.560895   -3.067352   -0.623890
H      3.005821    2.227939    0.834709
H      5.503091    0.701425    0.102830
H     -1.151922    0.699885    1.688956
H     -0.940702    1.304215   -0.001587
H     -1.230157   -0.343856   -1.867941
H     -1.412123   -2.132277   -1.456048
H      0.973260    1.111890    0.674619
H     -2.752587    1.740667   -1.360122
H     -4.383207    1.459426   -0.580928
H     -3.383497    0.236484    1.229481
H     -1.163750   -1.623573    0.912845
H     -3.604901   -0.600174   -1.510574
H     -3.869953    2.794598    1.073411
H     -2.791500   -2.720623   -0.151102
H      5.025165   -1.313039   -1.387717
