40

C      6.720064   -0.629302   -0.402246
C      5.345616   -0.742713    0.194139
C      4.562566    0.480938   -0.225694
C      3.167016    0.435224    0.338887
C      2.106242    0.437241   -0.446068
C      0.788359    0.391549    0.170362
C     -0.336447    0.390081   -0.542872
C     -2.435397    1.567659   -0.411863
C     -1.773050   -2.156283   -0.108365
C     -1.678587    0.344259    0.061498
C     -2.482752   -0.854916   -0.357771
C     -3.770827    1.722608    0.236420
C     -3.779482   -0.764253    0.340141
C     -4.591187    0.458092    0.228999
O     -2.632902   -3.178556   -0.543387
O     -3.614331    2.242854    1.516813
O     -4.166912   -1.694219    0.998620
O     -5.510607    0.569986    1.297636
H      7.454351   -0.220426    0.348411
H      6.683584    0.024257   -1.302518
H      7.092910   -1.639666   -0.688459
H      4.845629   -1.619833   -0.230579
H      5.419378   -0.795729    1.300680
H      4.509162    0.460358   -1.338140
H      5.068292    1.429674    0.054602
H      3.077798    0.401025    1.408053
H      2.274876    0.472871   -1.508711
H      0.658017    0.356412    1.242464
H     -0.250553    0.424459   -1.619976
H     -2.619996    1.400717   -1.513603
H     -1.865823    2.498887   -0.254958
H     -1.554631   -2.311768    0.950901
H     -0.883902   -2.203047   -0.763522
H     -1.599351    0.315414    1.175309
H     -2.696730   -0.768067   -1.451220
H     -4.340832    2.483107   -0.343154
H     -5.195641    0.428399   -0.704865
H     -3.075108   -3.628124    0.232274
H     -2.697906    2.268892    1.834274
H     -6.220904    1.201936    1.013682
