78

C    -10.546685   -0.300489    2.243286
C     -8.669155    0.783521   -0.628002
C     -5.846396   -1.069406   -2.582352
C     -3.054486   -0.714839   -3.179190
C    -10.641434   -1.033800    0.909086
C     -9.444401   -1.885154    0.718745
C      6.007132   -0.283555    0.773858
C      4.743310   -0.214503    1.065354
C      6.727402   -1.521515    0.986775
C      3.866181    0.919407    0.921195
C     -8.111697   -1.285234    0.629621
C      8.013764   -1.601364    0.700863
C     11.600171    0.489654   -0.158933
C     11.590820   -0.100144   -1.526681
C      2.601649    0.929024    1.233152
C     -6.360505    0.000185   -0.500949
C     -4.092394    0.245738   -1.229118
C      0.383708    1.399463    0.586178
C     -7.767949   -0.427035   -0.547374
C     -5.432815   -0.270803   -1.413873
C     -3.023319    0.101541   -1.941904
C     -0.560433    2.095268   -0.016989
C     11.039020   -0.523708    0.742835
C     10.911047   -1.405440   -1.348141
C      8.807101   -2.801204    0.884848
C     10.652074   -1.588987    0.065106
C     -0.359791    3.509701   -0.162287
C      1.013057    4.045777   -0.232874
C      2.052621    3.172402    0.288874
C     -1.742337    0.741551   -1.540932
C      1.641720    2.025167    1.119600
N     -1.730944    1.442849   -0.491879
N     10.054070   -2.789844    0.583427
O     10.939321   -0.359703    2.114955
O     10.631871   -2.186092   -2.311497
O      8.246163   -3.954531    1.381462
O     -1.330018    4.294994   -0.231309
O     -0.625942    0.563288   -2.302118
O      1.294156    2.392925    2.438117
O      1.651930    4.463401    0.966356
H    -11.319462    0.496181    2.295960
H     -9.534956    0.059343    2.439089
H    -10.787921   -1.088386    3.018418
H     -8.057900    1.658636   -1.067426
H     -9.058053    1.087374    0.343637
H     -9.486242    0.632264   -1.352414
H     -5.423560   -0.708288   -3.541846
H     -6.967473   -0.925210   -2.808980
H     -5.685020   -2.145485   -2.489913
H     -3.353707   -0.181595   -4.074887
H     -1.954095   -1.010070   -3.414486
H     -3.495358   -1.691240   -2.965537
H    -10.902169   -0.329836    0.112355
H    -11.570979   -1.685901    0.999103
H     -9.467250   -2.771618    1.428143
H     -9.626395   -2.435615   -0.284042
H      6.474876    0.611207    0.373372
H      4.262508   -1.127140    1.472877
H      6.219805   -2.377547    1.373292
H      4.271477    1.831903    0.531803
H     -7.882583   -0.711430    1.593929
H     -7.357527   -2.136885    0.721496
H      8.459257   -0.673099    0.304086
H     12.656778    0.745402    0.140746
H     11.058158    1.468708   -0.125375
H     11.030955    0.530607   -2.237967
H     12.642873   -0.269358   -1.867797
H      2.212691   -0.018555    1.641758
H     -6.038833    0.596642    0.354676
H     -3.956057    0.881051   -0.311962
H      0.198179    0.320905    0.680775
H     -8.006398   -1.029761   -1.440878
H      1.279074    4.720763   -1.077313
H      3.076756    3.353710   -0.056079
H     10.537699   -1.056506    2.707509
H      8.770781   -4.822727    1.481641
H      0.114204    1.257686   -2.359992
H      1.538285    1.645367    3.030904
