73

C     -1.012284   -3.222197    1.648816
C      2.865363   -2.133909   -0.836445
C      4.199469   -0.384852   -2.838734
C     -3.807114    1.049465   -1.913050
C     -7.785497   -0.207600   -0.943235
C     -2.999868   -1.944238   -0.256183
C     -6.882889    2.399898    1.054121
C      1.084271   -1.378735    1.094833
C      0.184473   -1.075171    2.007595
C      2.286294   -0.573377    0.877262
C      6.004338    0.858900   -1.823532
C      6.641419    1.399787   -0.597679
C      6.171628    2.264484    1.635957
C     -2.291049   -1.129422    2.050272
C     -1.048010   -1.881191    2.247053
C      3.182740   -0.914313   -0.062582
C      4.537410    0.479611   -1.658751
C     -4.246205    1.076712   -0.472794
C     -6.308558   -0.435444   -0.624029
C      5.981555    1.079886    0.697309
C      7.597286    2.545406    1.892739
C      4.395063   -0.152610   -0.323190
C     -5.692047    0.831480   -0.215321
C     -3.341169    0.521958    0.525240
C     -2.737926   -0.769433    0.660626
O     -6.136898   -1.523997    0.211237
O      8.515749    1.852617    1.392533
O      7.985379    3.605228    2.711720
O     -6.084269    1.302397    1.030100
O      4.619482    0.847669    0.629018
O     -1.975856    0.269600    0.073183
H     -0.879334   -3.351777    0.593710
H     -1.912764   -3.811679    1.976172
H     -0.164241   -3.851646    2.112848
H      1.917623   -2.045163   -1.428725
H      2.706085   -2.953016   -0.064225
H      3.662415   -2.510388   -1.472399
H      4.931850   -1.213291   -2.986421
H      3.153471   -0.671013   -2.905304
H      4.388262    0.277846   -3.744627
H     -4.377399    1.872598   -2.442123
H     -4.028598    0.138234   -2.460214
H     -2.756021    1.364622   -1.938030
H     -8.435840   -0.414617   -0.094234
H     -7.922440    0.818120   -1.343584
H     -8.122994   -0.895397   -1.771938
H     -2.094047   -2.148702   -0.909790
H     -3.201285   -2.878483    0.282833
H     -3.778249   -1.726046   -1.027819
H     -7.098320    2.638652    2.116866
H     -7.874800    2.270062    0.567029
H     -6.386221    3.327042    0.646308
H      0.875334   -2.269758    0.510857
H      0.355871   -0.193397    2.611037
H      2.500084    0.307108    1.447535
H      6.530544   -0.048135   -2.210942
H      6.034053    1.589258   -2.670807
H      7.694427    0.980628   -0.575807
H      6.780350    2.501435   -0.750882
H      5.763074    3.155210    1.081925
H      5.587801    2.150322    2.564671
H     -3.158862   -1.735945    2.488407
H     -2.332699   -0.206375    2.727666
H     -0.991065   -2.068372    3.376319
H      3.968957    1.440233   -1.751577
H     -4.109192    2.256399   -0.283264
H     -5.864671   -0.725923   -1.619094
H      6.515765    0.230319    1.179040
H      5.279630   -0.849578   -0.203551
H     -6.226862    1.607235   -0.908624
H     -3.311880    1.159367    1.478661
H     -6.325193   -2.355730   -0.263721
H      8.805098    4.181138    2.496372
