40

C      4.515475   -0.459047   -1.459079
C      5.129660   -1.012545   -0.171033
C      4.449861   -0.308620    0.975681
C      2.994110   -0.574773    0.937451
C      2.081998    0.367189    0.821802
C      0.658586    0.057971    0.788467
C     -0.201750    1.048924    0.670916
C     -2.018495   -0.630596    0.845494
C     -2.798469    2.718303   -0.478696
C     -1.645978    0.802294    0.631580
C     -2.283675    1.292788   -0.656700
C     -1.931107   -1.435041   -0.445724
C     -3.415906    0.400106   -0.966315
C     -3.158414   -1.020231   -1.268219
O     -3.750800    2.801911    0.528194
O     -1.935529   -2.774553   -0.144672
O     -4.539625    0.834415   -0.970794
O     -4.233750   -1.842258   -0.950022
H      4.603056    0.636100   -1.413365
H      3.450638   -0.780586   -1.459055
H      5.029965   -0.901875   -2.339578
H      6.224030   -0.767491   -0.134959
H      4.966549   -2.098150   -0.120230
H      4.874403   -0.614634    1.945621
H      4.645018    0.785679    0.834800
H      2.649135   -1.593575    1.007433
H      2.436042    1.381646    0.752563
H      0.363482   -0.972511    0.861212
H      0.183477    2.066033    0.602904
H     -1.492756   -1.091360    1.682764
H     -3.113220   -0.663154    1.124225
H     -1.910743    3.365083   -0.230622
H     -3.242428    3.099443   -1.412837
H     -2.128744    1.416111    1.447779
H     -1.544670    1.331347   -1.486131
H     -1.058948   -1.146470   -1.061725
H     -2.913245   -1.188706   -2.347408
H     -4.632538    2.893413    0.127056
H     -1.142719   -3.199141   -0.598700
H     -4.161975   -2.223442   -0.036998
