55

C      4.265254   -0.794638   -0.105777
C      1.527212   -1.702241   -1.746073
C     -0.533241    1.001490    1.331892
C     -3.900047   -0.682848   -1.436961
C     -2.948114   -1.627326    1.238901
C      2.379162   -0.339340    1.627532
C      0.402379    0.442032   -1.845041
C      1.370808   -1.346698    1.273688
C     -0.935443    0.974722   -1.372501
C      3.312872    1.398529    0.240109
C     -1.580117   -1.179643    1.706261
C     -3.700634   -0.377642    0.926288
C      4.242256    1.925088   -0.783957
C      3.309152    0.115458    0.574018
C      0.784650   -0.801887   -1.123851
C      0.350413   -1.103334    0.254421
C     -1.684076   -0.063360   -0.564496
C     -3.629202    1.534771   -0.611197
C     -0.869569   -0.318392    0.690266
C     -3.120346    0.162498   -0.396126
O      5.031938    2.899035   -0.149071
O     -2.887471    2.482138   -0.921959
O     -4.982404    1.826267   -0.471707
H      4.226202   -1.826521    0.316268
H      4.209595   -0.783303   -1.200886
H      5.305716   -0.433178    0.145279
H      1.853946   -2.629615   -1.310929
H      1.832133   -1.502342   -2.761781
H     -0.368232    0.924674    2.429981
H     -1.392725    1.720658    1.250128
H      0.310654    1.533216    0.881880
H     -4.962654   -0.740208   -1.110189
H     -3.880891   -0.136139   -2.386393
H     -3.423646   -1.661156   -1.562552
H     -2.809566   -2.304476    0.392714
H     -3.423997   -2.141106    2.096300
H      1.923666    0.502464    2.186688
H      3.098796   -0.773604    2.427914
H      0.380241    0.263334   -2.962378
H      1.231398    1.160741   -1.709974
H      0.881510   -1.659511    2.261484
H      1.949389   -2.313903    1.037316
H     -0.699577    1.898533   -0.815467
H     -1.481624    1.280892   -2.290707
H      2.623122    2.104304    0.720107
H     -1.722959   -0.628810    2.656993
H     -1.041888   -2.118542    1.957612
H     -3.549134    0.357111    1.740386
H     -4.783584   -0.501051    0.804662
H      4.862291    1.136685   -1.242985
H      3.681472    2.423649   -1.593678
H     -0.139150   -2.169055    0.100491
H     -1.553168   -1.017408   -1.170559
H      5.958035    2.824120   -0.488372
H     -5.300804    2.784870   -0.258843
