69

C     -1.438245    6.206209    1.962565
C     -5.852069   -3.167968    1.146454
C     -6.777478   -0.985744    0.565699
C     -7.725054   -2.999356   -0.461141
C      4.356329   -3.994881   -1.932928
C     -1.542678    2.823054   -0.441148
C     -1.500570    4.077575   -0.125306
C      0.940403    2.219150   -0.181408
C      6.437468   -0.151814    2.152387
C      1.657600    6.679579    0.044650
C     -3.338065   -1.780087   -2.120368
C     -0.314729    6.014929    0.949429
C     -0.469034    1.967093   -0.665296
C      6.299211   -1.349643    1.509228
C     -0.407027    4.903157    0.041471
C      5.198099   -1.553142    0.507636
C      2.476653   -0.824063   -1.638791
C     -0.665909    0.705879   -1.117220
C      4.272024   -0.515231    0.123000
C      1.123020   -1.359522   -1.231861
C      1.620571    0.309318   -2.187731
C     -1.960342    0.126931   -1.399272
C     -5.474000   -2.300910   -1.081148
C      8.122472   -2.105653    2.647833
C     -6.457058   -2.354947   -0.002068
N      9.068908   -2.901697    3.057281
N      0.692733    6.752216    0.837405
N      7.162845   -2.295642    1.787843
N      3.396466   -0.608678   -0.710836
N      5.073025   -2.695185   -0.067483
N      0.487203   -0.113372   -1.399656
O      4.362547    0.754896    0.761246
O      0.793698   -2.522910   -0.885695
O     -3.042919    0.728107   -1.282628
O     -5.798991   -2.777079   -2.220122
O      4.121901   -2.975723   -0.973974
O     -2.080379   -1.203920   -1.838215
O     -4.195096   -1.775953   -1.003271
S      2.084936    1.973656   -1.560262
S      7.872281   -0.440943    3.183936
S      1.099452    5.155309   -0.875189
H     -2.221951    6.870920    1.548108
H     -1.833677    5.226505    2.269538
H     -1.044253    6.700826    2.876584
H     -4.766794   -3.355551    0.983873
H     -6.003765   -2.670105    2.115184
H     -6.392829   -4.132625    1.198558
H     -5.899882   -0.438849    0.913525
H     -7.285274   -0.369830   -0.213094
H     -7.477806   -1.050007    1.421152
H     -8.297255   -3.394316    0.417858
H     -8.372076   -2.255369   -0.968834
H     -7.543374   -3.887828   -1.126596
H      3.936726   -3.696669   -2.916539
H      5.455850   -4.083869   -2.079522
H      4.019906   -4.990930   -1.582569
H     -2.579145    2.382349   -0.522201
H     -2.518213    4.564205    0.034389
H      1.027283    3.056544    0.418615
H      1.144037    1.329780    0.576599
H      5.903954    0.796421    2.142956
H      2.583626    7.170181   -0.222704
H     -3.835148   -1.316215   -3.012813
H     -3.124961   -2.836166   -2.431025
H      2.813906   -1.393871   -2.593162
H      1.420336    0.298449   -3.256913
H      9.739991   -2.499462    3.778751
H      7.107299   -3.273914    1.309031
H      4.363284    1.606403    0.253065
