127

C     11.142414    5.738619    1.687950
C     -0.862008   -6.278362   -1.926359
C      2.782385    1.504296   -1.295295
C      1.732893    0.032311   -2.836526
C     -7.163659    1.190175    2.698500
C     -7.676254    1.495175    0.325003
C     -2.404678    8.066294   -4.345504
C      6.654452   -5.915072   -1.701921
C      9.963385    4.947685    2.207417
C     10.000865    3.596748    1.559708
C      8.876547    2.716194    1.985834
C      8.033447    2.265968    1.075652
C      6.918410    1.405264    1.426210
C      6.107397    0.986560    0.473279
C     -0.872580    1.445427   -1.552059
C      0.316655    1.309941   -1.092415
C     -1.859342    3.759193   -1.308215
C     -4.101030    3.872405   -0.134098
C     -3.437949    5.505814   -1.801502
C      2.294959   -3.522323   -0.825707
C      4.602743   -2.878099   -0.732677
C     -4.350930   -2.353990    2.748950
C     -2.748505   -4.176709    2.170762
C     -0.145167   -3.764058   -1.082986
C     -6.698751   -1.643559    2.247718
C     -4.784508    1.984131    1.204273
C     -0.486350   -6.104114   -0.478352
C     -3.144807    4.417091   -1.118177
C      3.356435   -2.539322   -0.582293
C     -3.041549   -2.679010    2.065831
C     -2.081704    2.255019   -1.113556
C      0.928536   -2.851735   -0.527213
C     -5.220539   -1.518313    1.856024
C     -4.010651    2.378031   -0.036938
C     -0.782280   -4.654436   -0.073684
C     -7.438554   -0.746809    1.248336
C      4.967358    0.124755    0.724218
C     -2.615031    6.182517   -2.768177
C      4.962633   -4.224101   -1.139855
C     -1.290408   -4.429690    2.329592
C      3.040922   -1.109327   -0.138091
C      1.569539    0.543582   -1.454246
C     -6.907964    0.661688    1.295234
C     -5.415651    0.640579    1.048894
C      1.707387   -0.670153   -0.545132
O     -1.210404   -6.976035    0.315910
O     -3.141623   -2.286670    0.738090
O     -8.795282   -0.722832    1.567825
O      4.662332   -0.291644    1.867416
O     -1.466810    5.874941   -3.143081
O      4.133910   -5.138651   -1.370489
O     -0.833457   -4.675436    3.482946
O     -5.164386    0.161334   -0.218616
O      0.864374   -0.384746    0.567826
O     -3.137547    7.333758   -3.383878
O      6.302844   -4.603614   -1.306900
O     -2.672519    1.948111    0.051127
O     -0.442187   -4.399943    1.252892
O      4.135626   -0.295185   -0.302924
O     -4.879931   -0.191309    2.056866
O      0.971432   -1.678156   -1.225437
H     10.820514    6.758516    1.347520
H     11.895353    5.901617    2.480368
H     11.650436    5.199095    0.837995
H      0.077708   -6.324796   -2.516386
H     -1.514519   -5.467191   -2.308151
H     -1.387724   -7.243025   -2.070932
H      2.441238    2.481259   -1.789250
H      3.613324    1.188537   -1.903167
H      2.940404    1.799220   -0.263843
H      0.994920    0.589805   -3.486284
H      2.701743    0.192117   -3.306719
H      1.464295   -1.034406   -2.966929
H     -8.145548    0.797133    3.009665
H     -6.354827    0.821078    3.367719
H     -7.231993    2.296246    2.683450
H     -8.757505    1.254048    0.468039
H     -7.570156    2.561838    0.606230
H     -7.446629    1.297449   -0.729906
H     -2.419337    9.165163   -4.145491
H     -2.900690    7.922267   -5.326416
H     -1.348200    7.745242   -4.424821
H      5.783303   -6.536244   -1.985940
H      7.279047   -6.415394   -0.931549
H      7.313996   -5.891211   -2.620559
H     10.103066    4.840116    3.313297
H      9.000935    5.457420    1.974858
H     10.019297    3.690171    0.454337
H     10.952045    3.105185    1.839741
H      8.742879    2.444220    3.014141
H      8.197845    2.562995    0.043188
H      6.770360    1.123656    2.459548
H      6.307005    1.301622   -0.539242
H     -1.315890    0.914567   -2.467420
H      0.715561    1.819921   -0.119997
H     -1.441911    3.821156   -2.345852
H     -1.082814    4.098070   -0.562166
H     -4.006874    4.369840    0.859983
H     -5.159242    4.093938   -0.444893
H     -4.428572    5.926773   -1.590471
H      2.294044   -3.876858   -1.880428
H      2.304545   -4.395644   -0.165935
H      5.435318   -2.174088   -0.562681
H     -4.157932   -1.816696    3.717099
H     -4.878201   -3.287089    2.987633
H     -3.304639   -4.506237    3.096541
H     -3.214379   -4.745041    1.354212
H      0.316867   -4.338673   -1.936078
H     -0.894902   -3.094008   -1.566053
H     -6.866549   -1.225050    3.248217
H     -7.075141   -2.672887    2.116222
H     -5.543825    2.780041    1.457632
H     -4.073216    2.011252    2.053884
H      0.589679   -6.344784   -0.319085
H     -2.183568   -2.186908    2.569880
H     -2.878715    2.047377   -1.906946
H      0.882852   -2.739975    0.568045
H     -5.166883   -1.769302    0.797693
H     -4.417365    1.940416   -0.964846
H     -1.906179   -4.577436   -0.193300
H     -7.264107   -1.131191    0.221967
H      2.983137   -1.293554    0.992997
H     -0.695124   -7.697561    0.726166
H     -3.639160   -2.993185    0.255014
H     -9.368756   -0.672515    0.762977
H     -4.220422   -0.015073   -0.407522
H     -0.075099   -0.493553    0.345018
