51

C      5.981074   -0.642265   -1.674505
C      4.769963   -0.869150   -0.801839
C      4.018103    0.133782   -0.393849
C     -1.786948   -2.535199    1.439160
C     -1.816969   -2.717038   -0.084329
C     -1.286909   -1.120334    1.781460
C     -1.894997    3.118357    0.690126
C     -3.167507    3.343967    0.234212
C     -2.246616   -1.395852   -0.714301
C     -0.208724   -0.264269   -1.681188
C      2.843376   -0.164319    0.461866
C      1.226069   -0.484678   -1.268732
C      0.109036    1.743669    0.947490
C     -3.167467    1.186912   -0.739260
C     -1.254114    1.932055    0.436118
C     -3.832638    2.372457   -0.495852
C     -0.383773   -0.724146    0.678542
C     -1.882394    0.951881   -0.281684
C      0.613192    0.335667    0.934856
C     -1.181229   -0.340875   -0.555081
N      1.608498    0.254496   -0.116455
O     -5.126193    2.597224   -0.961032
Br     0.766513    0.000000    0.000000
H      5.977838   -1.298782   -2.555236
H      6.913938   -0.824165   -1.105440
H      6.033035    0.437004   -1.986705
H      4.591842   -1.918877   -0.554873
H      4.293857    1.130569   -0.703504
H     -0.997683   -3.229864    1.797079
H     -2.756701   -2.744195    1.887107
H     -0.892611   -3.118740   -0.489917
H     -2.630573   -3.446766   -0.346991
H     -0.844657   -1.125991    2.778961
H     -2.223946   -0.491146    1.734126
H     -1.410828    3.926310    1.266435
H     -3.658266    4.292042    0.446843
H     -2.617821   -1.521935   -1.729236
H     -3.137163   -1.091608   -0.085751
H     -0.262757    0.744407   -2.140674
H     -0.443754   -1.019369   -2.459926
H      2.864634   -1.216282    0.801186
H      2.988789    0.450074    1.399835
H      1.857838   -0.115787   -2.124522
H      1.483555   -1.579978   -1.200558
H      0.175345    2.213501    1.974221
H      0.760443    2.432491    0.326106
H     -3.690497    0.423466   -1.314838
H      0.198040   -1.643694    0.380912
H      1.063649    0.143804    1.940696
H     -5.568380    3.481167   -0.755628
H     -0.766513    0.000000    0.000000
