58

C     -6.724031    0.713767    1.156624
C      1.883359    0.801883    2.042486
C     -5.651658    0.045957   -1.456414
C     -0.914825    0.565055    1.831887
C      3.231463    1.448083   -1.219514
C     -2.969753    1.217928   -1.988872
C      7.430618    0.182142    0.537504
C     -5.240983    0.599253    0.889496
C      0.803018   -0.550690    0.312808
C      3.201850   -0.534116    0.307347
C      1.868576   -0.094144    0.890403
C     -4.968176   -0.404762   -0.216253
C     -0.585322   -0.287887    0.663507
C      3.986760    0.673847   -0.153557
C     -2.685349    0.583252   -0.671568
C      6.203116   -0.579691    0.090393
C     -3.487088   -0.608497   -0.310808
C     -1.222149    0.365785   -0.537133
C      5.269937    0.211116   -0.758566
C      6.413645   -1.287485   -1.222204
O     -3.228028   -1.608513   -1.277443
O     -0.502482    0.727837   -1.428494
O      7.372727   -1.851370   -1.764829
O      5.064477   -0.998937   -1.490243
H     -7.260089    1.165756    0.288814
H     -6.828826    1.456541    1.995999
H     -7.182049   -0.245000    1.456502
H      1.323234    0.510510    2.924695
H      1.786163    1.897644    1.767967
H      2.970101    0.801397    2.441674
H     -5.478013   -0.612722   -2.330558
H     -5.529804    1.115483   -1.633663
H     -6.766187   -0.076574   -1.257056
H     -0.461883    1.541997    1.808844
H     -2.049894    0.813212    1.819055
H     -0.857296    0.005646    2.804518
H      2.147859    1.396107   -1.102824
H      3.649088    2.468738   -1.226154
H      3.500030    0.996089   -2.211805
H     -3.478214    0.576014   -2.730538
H     -1.992756    1.490532   -2.510121
H     -3.463481    2.231272   -1.893423
H      7.154984    1.040899    1.185417
H      8.067204   -0.516894    1.114965
H      7.969019    0.523858   -0.388377
H     -4.881539    1.614711    0.638872
H     -4.744973    0.271705    1.803214
H      0.961985   -1.250543   -0.588911
H      3.085613   -1.257886   -0.499412
H      3.798907   -1.023871    1.105370
H     -5.458727   -1.345977    0.118731
H     -1.085967   -1.315416    0.779707
H      4.196852    1.331080    0.704235
H     -2.925032    1.371716    0.112742
H      5.796505   -1.288201    0.807059
H     -3.167390   -1.035660    0.669627
H      5.828006    0.962121   -1.354345
H     -3.173136   -2.503194   -0.847378
