63

C     -8.800776   -0.989423   -2.786093
C     -8.225026    0.070885   -1.874381
C     -7.401885   -0.554618   -0.758823
C     -6.884388    0.594443    0.075613
C     -6.035471    0.130667    1.249440
C     -4.878400   -0.614587    0.720787
C     -3.656493   -0.200065    0.960931
C     -3.258039    0.983374    1.736471
C     -2.495711    1.872931    0.830471
C     -1.270282    2.229817    1.065008
C     -0.492025    1.821750    2.218782
C      0.762804    1.029362    1.807019
C      0.373885   -0.198975    1.056704
C      1.513988   -1.028642    0.629517
C      2.472817   -0.581108   -0.380176
C      3.264306    0.662364   -0.210719
C      4.278450    0.809824   -1.378950
C      8.999079    0.428582   -0.528122
C      7.357625   -1.369947   -0.808435
C      8.558779   -0.935584    0.005309
C      5.214663   -0.335055   -1.426005
O      9.513149    0.367888   -1.799344
O      8.063743   -0.676216    1.304488
O      4.920900   -1.378267   -2.053056
O      6.432286   -0.272961   -0.777293
H     -8.031344   -1.744821   -3.055934
H     -9.102558   -0.490516   -3.720153
H     -9.695940   -1.415852   -2.328906
H     -7.564766    0.776546   -2.405118
H     -9.059049    0.601598   -1.393861
H     -7.958455   -1.263915   -0.148474
H     -6.513247   -1.088685   -1.198258
H     -6.300004    1.240054   -0.610789
H     -7.778046    1.116855    0.493801
H     -6.622055   -0.620869    1.863163
H     -5.740521    0.920811    1.903887
H     -5.043599   -1.544656    0.110918
H     -2.839313   -0.816037    0.527778
H     -2.523553    0.599137    2.515108
H     -4.026129    1.501172    2.299985
H     -3.053178    2.213555   -0.068764
H     -0.815015    2.898943    0.304643
H     -0.040201    2.794481    2.638063
H     -0.953310    1.356232    3.062533
H      1.152914    0.652281    2.810757
H      1.459855    1.654150    1.307403
H     -0.320669    0.052353    0.197429
H     -0.247176   -0.846005    1.756934
H      1.057587   -2.033951    0.311196
H      2.047395   -1.362681    1.592455
H      3.265006   -1.419564   -0.437725
H      2.035403   -0.615990   -1.432671
H      3.770577    0.703732    0.753953
H      2.624169    1.587739   -0.411596
H      4.809093    1.768901   -1.198095
H      3.742613    0.860751   -2.327289
H      9.710770    0.851612    0.226107
H      8.093257    1.069609   -0.532473
H      6.890196   -2.286578   -0.428975
H      7.710954   -1.548894   -1.844093
H      9.371404   -1.664300    0.015747
H     10.141473   -0.413299   -1.831043
H      8.017483   -1.533294    1.803216
