38

C     -1.500821   -0.956374   -1.507751
C     -3.528284   -0.374234   -0.138739
C     -1.826596    2.085831   -1.042958
C      4.973184   -0.024814   -0.543011
C      4.750412   -0.637537    0.669720
C      3.944966    0.187746   -1.434900
C      3.475888   -1.023900    0.953356
C      2.645455   -0.214223   -1.129202
C     -1.716273   -0.017538    2.027020
C     -1.990360    1.334873    1.363858
C      1.137761   -1.321129    0.514799
C      2.418590   -0.815238    0.059596
C      0.073771   -0.592102    0.514081
C     -1.331342   -0.947164    0.940643
C     -0.019903    0.806126    0.131787
C     -2.034454   -0.311191   -0.274998
C     -1.486222    1.087145   -0.041186
O      0.919683    1.620536   -0.022561
H     -2.203085   -1.635702   -2.017524
H     -1.143257   -0.227245   -2.272159
H     -0.590334   -1.575255   -1.271718
H     -3.992903    0.356621   -0.818465
H     -3.890453   -0.287947    0.883727
H     -3.834224   -1.376563   -0.508437
H     -0.943292    2.693641   -1.313336
H     -2.294441    1.621466   -1.943571
H     -2.587780    2.791945   -0.614658
H      5.981960    0.278449   -0.760577
H      5.536059   -0.819716    1.391951
H      4.121730    0.678828   -2.406331
H      3.302312   -1.512605    1.925662
H      1.837115   -0.066264   -1.832479
H     -0.842915    0.110290    2.717771
H     -2.586059   -0.349322    2.627527
H     -1.306251    2.116191    1.798803
H     -3.023212    1.660176    1.435338
H      1.054013   -2.353332    0.874580
H     -1.500437   -1.990470    1.064340
