63

C      5.146159    3.267009    0.381292
C      5.239755    2.415518   -0.855824
C      5.012263    0.965290   -0.577318
C      6.025055    0.407741    0.391323
C      5.763898   -1.094408    0.631649
C      5.861042   -1.802810   -0.633468
C      4.929940   -2.527643   -1.183172
C      3.600393   -2.741295   -0.576205
C      2.537143   -2.257512   -1.462358
C      1.633554   -1.331915   -1.211306
C      1.617176   -0.649423    0.090979
C      0.270485   -0.930748    0.767007
C     -0.807481   -0.418824   -0.116054
C     -2.172975   -0.595204    0.582472
C     -2.405692   -2.027523    0.852802
C     -3.665775   -2.337244    1.555564
C     -4.926728   -1.934486    0.915940
C     -6.458812    3.408092   -1.094442
C     -6.735862    1.152512   -0.259963
C     -5.698069    2.107618   -0.797315
C     -5.271838   -0.516653    0.818543
O     -5.636676    4.334646   -1.723296
O     -5.265684    1.638550   -2.039348
O     -4.780332    0.455420    1.409749
O     -6.319328   -0.148888   -0.072223
H      5.839064    2.923960    1.145281
H      5.459303    4.293961    0.073780
H      4.087261    3.299837    0.742503
H      4.437524    2.734054   -1.565965
H      6.246439    2.526906   -1.306910
H      4.913287    0.353478   -1.486917
H      4.007665    0.908826   -0.058364
H      7.020073    0.492524   -0.059708
H      5.944071    0.944516    1.369878
H      4.803901   -1.117989    1.161280
H      6.527382   -1.416088    1.383272
H      6.824658   -1.719781   -1.186954
H      5.152533   -3.010697   -2.163578
H      3.595231   -2.394548    0.445307
H      3.503099   -3.888284   -0.481685
H      2.478420   -2.717258   -2.461394
H      0.892100   -1.055522   -1.965223
H      1.630946    0.475209   -0.094303
H      2.455661   -0.825663    0.752564
H      0.175106   -2.059523    0.829779
H      0.238603   -0.571998    1.795109
H     -0.716412    0.637178   -0.388699
H     -0.894447   -0.992584   -1.077014
H     -2.158870    0.003114    1.493634
H     -2.942644   -0.174906   -0.138077
H     -2.426828   -2.631559   -0.118096
H     -1.539430   -2.492799    1.408363
H     -3.700314   -3.412491    1.912990
H     -3.619459   -1.740567    2.542202
H     -5.762885   -2.501248    1.425450
H     -4.983248   -2.371571   -0.142569
H     -7.383171    3.200767   -1.660244
H     -6.771245    3.844864   -0.099570
H     -7.559174    1.121840   -1.025424
H     -7.182627    1.583979    0.647751
H     -4.900407    2.367911   -0.099699
H     -5.205393    4.884738   -1.031334
H     -5.977385    1.659597   -2.702259
