78

C     -3.506626   -1.193303   -1.069815
C     -5.190287    0.794199    1.204828
C     -0.810119   -3.367492    1.572830
C     -1.190190    2.090649    1.936051
C      1.156584    2.759847   -1.768100
C      1.222266    1.443547   -1.660218
C      5.200884    1.322421    0.808384
C      0.941393    3.703399   -0.706947
C      3.698758    1.232472    0.704018
C      5.695548   -0.071237    0.455786
C      1.078126    0.727027   -0.363517
C     -3.261157   -0.775396    1.422651
C     -2.908654   -2.984356    0.421810
C     -2.909388    1.397178    0.348985
C      0.665000   -3.262750   -0.908906
C     -0.224283    4.912249    1.014827
C     -3.691014   -1.662377    0.326891
C     -3.676381    0.651160    1.371158
C     -1.432107   -2.792176    0.308773
C     -2.083558    2.559067    0.871975
C     -0.180131    3.913326   -0.039532
C      3.477786    0.314896   -0.461778
C      4.626421   -0.630854   -0.467060
C     -0.816577   -3.565795   -0.846425
C      2.135281   -0.390619   -0.381427
C      0.991089   -2.106033   -1.773751
C     -1.449129    3.207813   -0.310366
C      5.265077   -0.746560   -1.806649
N     -0.259297    5.699494    1.872553
O     -0.982545   -4.936440   -0.666113
O      0.322498   -2.039885   -2.863940
O     -1.396193    2.409947   -1.451294
O      5.338168   -1.877353   -2.333026
O      5.776048    0.343165   -2.483246
O      1.906071   -1.131047   -1.533373
H     -2.447874   -1.257085   -1.426641
H     -4.016930   -0.260671   -1.348540
H     -4.023396   -1.974399   -1.717999
H     -5.506905    1.750246    1.714128
H     -5.514737    0.823770    0.166116
H     -5.647807   -0.021465    1.802644
H      0.071877   -2.761766    1.849627
H     -1.559484   -3.373147    2.396221
H     -0.527849   -4.441570    1.392270
H     -0.782477    1.075797    1.798676
H     -0.325520    2.739084    2.171005
H     -1.765841    2.033965    2.908613
H      1.314854    3.114746   -2.812258
H      1.386932    0.798110   -2.536996
H      5.567823    2.021484    0.035979
H      5.550671    1.620861    1.810470
H      1.795707    4.356436   -0.426301
H      3.323116    2.265904    0.487302
H      3.225226    0.869961    1.644516
H      5.803760   -0.700156    1.375106
H      6.688433   -0.013421   -0.009355
H      0.114154    0.220020   -0.385824
H      1.251346    1.384875    0.501027
H     -3.722329   -1.191765    2.376509
H     -2.173036   -0.823999    1.634688
H     -3.223629   -3.567469    1.305635
H     -3.250640   -3.566981   -0.481984
H     -2.183927    0.731409   -0.160825
H     -3.623816    1.861169   -0.371145
H      1.225595   -4.151471   -1.326903
H      1.046478   -3.122739    0.101645
H     -4.755907   -1.931944    0.478576
H     -3.485945    1.068686    2.404805
H     -1.091507   -1.762212    0.212674
H     -2.851740    3.251265    1.335002
H      3.545873    0.936530   -1.390998
H      4.364852   -1.644850   -0.093729
H     -1.307162   -3.323715   -1.822357
H      2.098927   -0.943332    0.555579
H     -2.179713    4.030436   -0.625774
H     -0.119170   -5.339500   -0.480961
H     -1.612382    2.877404   -2.279796
H      5.794740    0.393314   -3.506467
