37

C      0.108072    3.572346   -0.887226
C     -3.025084   -2.434317    0.319766
C      3.739101   -1.100651    0.095018
C     -1.818327    0.274901   -1.352389
C     -1.361462    1.674109   -1.156880
C     -2.523105   -0.189764   -0.152463
C      1.091851    1.255052   -1.202775
C      1.579547    0.958064    0.187438
C     -0.804620   -1.548065    1.218438
C     -0.128943    2.093846   -1.092739
C     -1.915713   -1.394167    0.588506
C      2.628858   -1.210027    0.772334
C      1.364489   -0.482648    0.505373
C      0.418020   -0.746385    1.622481
C      2.327180   -2.041395    1.933171
O      3.011849   -3.078970    2.232807
O      1.246932   -1.479357    2.539148
H      0.414474    3.697889    0.183141
H     -0.809213    4.157891   -1.083597
H      0.931143    3.908528   -1.574049
H     -4.032066   -1.872066    0.289693
H     -3.238504   -3.228839    0.959238
H     -2.945959   -2.796225   -0.741395
H      4.641107   -1.655625    0.329411
H      3.805064   -0.434796   -0.748847
H     -0.995880   -0.387608   -1.700574
H     -2.529523    0.306879   -2.197080
H     -2.178754    2.412057   -1.059065
H     -3.608066   -0.424823   -0.428300
H     -2.677235    0.683909    0.513965
H      1.863327    1.855570   -1.755432
H      0.919544    0.298927   -1.727908
H      1.105323    1.610315    0.952709
H      2.686729    1.129294    0.194090
H     -0.445615   -2.575464    1.665780
H      0.925630   -1.000767   -0.400390
H      0.229829    0.192382    2.158600
