56

C     -1.940291    1.815700   -0.925811
C     -3.511701    0.747683    0.447364
C     -2.586806    3.027566   -0.766534
C     -4.175968    1.969186    0.616812
C      3.061309   -0.617623   -1.092195
C      4.343282   -0.113948   -1.142262
C     -2.485516   -1.648848   -1.231543
C     -2.916542   -2.709286   -0.249224
C      2.738724    0.548471    0.990327
C     -0.785340   -2.654930    0.731583
C      0.116285   -0.467332    1.116037
C      6.039375    2.079114    1.230040
C     -2.379482    0.653362   -0.329810
C     -1.195949   -1.218670    0.789953
C     -3.705786    3.092953    0.008368
C      2.267204   -0.279710   -0.020628
C     -1.660890   -0.645581   -0.517537
C      4.821971    0.704377   -0.151877
C      4.026955    1.056418    0.942917
F     -4.355962    4.283260    0.175531
N     -1.698781   -3.502360    0.010783
O      0.989106   -0.771450    0.045975
O      6.034490    1.335201    0.048032
O      4.745389    1.887173    1.793029
C      0.988120   -0.794262    0.004191
C     -0.227530   -1.045066   -0.399872
C      1.464452    0.399131    0.609015
C     -1.303700   -0.102095   -0.282581
O      2.724530    0.381527    0.914691
O      0.865991    1.570891    0.938163
O     -1.214489    1.020825    0.197729
O     -2.580281   -0.508743   -0.765609
H     -1.058579    1.826145   -1.551634
H     -3.940500   -0.077931    0.953880
H     -2.218649    3.936584   -1.250065
H     -5.071831    2.021593    1.237198
H      2.686137   -1.268786   -1.884121
H      4.954896   -0.385051   -1.984944
H     -3.340097   -1.219988   -1.794795
H     -1.843916   -2.109382   -2.043988
H     -3.707434   -3.371630   -0.675038
H     -3.203289   -2.321628    0.744162
H      2.068858    0.776587    1.803061
H      0.263968   -2.751889    0.332216
H     -0.738481   -3.033204    1.776431
H     -0.061231    0.595780    1.260745
H      0.511794   -0.889226    2.069544
H      6.765333    1.718328    1.975301
H      6.121029    3.176458    1.041275
H     -1.928407   -1.039838    1.607249
H     -0.769091   -0.400109   -1.181640
H     -1.275586   -3.753537   -0.919696
H      1.708722   -1.624198   -0.155287
H     -0.443974   -2.051069   -0.863382
H      1.248264    2.503411    0.728338
H     -3.230105    0.249648   -0.925397
