31

C      2.001530    0.169045    0.415455
C     -1.814610   -1.176771   -1.370705
C      0.589971    0.525690    0.638714
C     -0.407343   -1.082915   -0.853487
C      2.785378    0.689190   -0.509747
C     -1.558482   -0.292059    1.109246
C     -2.511700    0.471191    0.227056
C     -3.888208    0.169634    0.721397
N     -2.454265    0.087327   -1.150977
N     -0.301714   -0.596694    0.485071
O     -4.773138   -0.332139   -0.022480
O     -4.240028    0.441168    2.049574
O      4.850716   -1.134758    0.228918
O      5.476575    1.497573   -0.276238
O      4.725810   -0.102189   -2.188925
P      4.498004    0.216947   -0.735657
H      2.430009   -0.584483    1.067253
H     -1.727781   -1.301036   -2.487764
H     -2.373279   -1.999198   -0.909733
H      0.498489    0.846015    1.713362
H      0.215022    1.344486    0.010544
H      0.164729   -0.407348   -1.525765
H      0.051420   -2.094119   -0.976810
H      2.366404    1.440724   -1.163962
H     -2.023806   -1.205637    1.551095
H     -1.333561    0.375611    1.974626
H     -2.361860    1.574127    0.286230
H     -3.353411    0.218494   -1.628109
H     -5.154274    0.828647    2.260320
H      4.638088   -0.902691    1.169582
H      4.985315    2.316169   -0.108084
