73

C      3.990195    0.036305    3.874763
C     -3.420300   -2.075449   -4.374491
C     -7.682591    0.216845   -3.690973
C     -4.404156   -3.640059   -0.433968
C     -1.587333    2.124868    2.277085
C     -1.565525    0.650425    2.070933
C     -0.269408    2.448260    2.935518
C     -1.707430   -0.036775    0.992394
C      0.926284    2.133226    2.118332
C     -1.653353   -1.518450    0.977767
C      1.800158    1.209221    2.494611
C     -1.839196   -2.115799   -0.160566
C      3.041166    0.842013    1.728799
C     -2.113139   -1.548619   -1.491019
C      5.531104    0.937406    2.179297
C     -5.242493   -1.055407   -3.196927
C     -6.035525   -0.595945   -2.090291
C      6.186619    0.799448    1.183625
C      6.602092    0.457611   -1.115923
C      8.567543    0.667593    0.341076
C      4.199526    0.987658    2.647204
C     -4.075541   -1.692212   -3.101911
C     -7.186982    0.009037   -2.296699
C      7.040751    0.652856    0.090333
C     -3.519312   -2.043700   -1.817791
C      5.334611    0.346041   -1.654035
C      8.946926    1.967349    0.946356
C     -7.999988    0.518573   -1.194326
O      5.300764    0.104520   -2.987753
O      4.056642    0.418208   -1.213551
O      8.990153    3.019479    0.329021
O      9.271061    1.945668    2.327022
O     -9.116921    1.086426   -1.418518
O     -7.576897    0.394263    0.095642
O     -3.564109   -3.426733   -1.542465
H      3.300125   -0.723816    3.493897
H      3.548357    0.584670    4.709497
H      4.950263   -0.475967    4.122066
H     -3.230447   -3.186014   -4.303927
H     -4.070071   -1.881181   -5.258181
H     -2.416593   -1.584098   -4.478819
H     -7.674609   -0.757926   -4.185939
H     -8.737684    0.590390   -3.702468
H     -7.010813    0.897321   -4.267503
H     -4.481418   -4.712469   -0.268226
H     -5.369900   -3.201212   -0.709370
H     -4.015363   -3.095810    0.461859
H     -1.700947    2.709616    1.369154
H     -2.436911    2.341608    2.967267
H     -1.402066    0.081835    3.011298
H     -0.190617    1.937054    3.940078
H     -0.244372    3.548340    3.207364
H     -1.874354    0.490948    0.079248
H      1.066253    2.665358    1.221478
H     -1.463578   -2.066322    1.889167
H      1.542000    0.708507    3.445090
H     -1.747696   -3.216857   -0.146779
H      2.898924   -0.094110    1.222044
H      3.171533    1.666674    0.937792
H     -2.040052   -0.473437   -1.485192
H     -1.447759   -1.925587   -2.306269
H      6.270602    0.815307    3.147236
H     -5.645556   -0.866466   -4.211275
H     -5.764584   -0.704313   -1.027750
H      7.003772    1.938579    1.611697
H      7.465892    0.376982   -1.838406
H      8.809052   -0.168096    1.030983
H      9.048967    0.510151   -0.622202
H      4.079705    2.038190    3.138251
H     -4.164098   -1.586251   -0.986620
H      3.347309   -0.305512   -1.417878
H      9.617252    2.729853    2.838568
H     -8.215911    0.169909    0.868517
