57

C     -2.687940    2.830831   -2.079077
C      5.117218    1.202995    0.599650
C      1.632518   -2.642857    2.550836
C     -3.073529   -3.261082    1.239780
C     -3.087937   -1.988081    1.765816
C     -2.418035   -3.547535    0.060863
C     -2.416640   -1.016646    1.057847
C     -1.759991   -2.547148   -0.614122
C      0.922899    2.046240   -1.896178
C     -0.339905    2.813442   -1.564047
C      2.467810    1.045853   -0.366092
C      0.753232   -0.856751    0.603068
C     -1.793398    1.142945   -0.622283
C     -1.756612   -1.282046   -0.120123
C      1.175434    0.986102   -0.852140
C      0.316605    0.025305   -0.359813
C     -1.075013   -0.153389   -0.782635
C      2.913466    0.167313    0.597430
C      2.038467   -0.774792    1.066491
N     -1.532316    2.061748   -1.700096
O      4.227719    0.220577    1.098345
O      2.501307   -1.652165    2.036159
C      0.793811   -0.956948   -0.280423
C     -0.496006   -0.893839   -0.439583
C      1.598341    0.036557    0.327617
C     -1.326802    0.181481   -0.032422
O      2.878413   -0.225211    0.387367
O      1.266706    1.234593    0.868915
O     -0.981091    1.217549    0.530109
O     -2.707919    0.081721   -0.286627
H     -3.613266    2.247996   -1.892427
H     -2.741959    3.692583   -1.350766
H     -2.663016    3.195479   -3.106382
H      5.108339    1.294452   -0.488373
H      4.928291    2.194464    1.100517
H      6.145994    0.898049    0.906894
H      1.459680   -3.470681    1.838725
H      2.103921   -3.073712    3.464065
H      0.657947   -2.225007    2.868458
H     -3.604418   -4.047830    1.792363
H     -3.610711   -1.758515    2.706464
H     -2.433473   -4.583083   -0.322904
H     -2.433136    0.001516    1.486639
H     -1.243478   -2.777137   -1.544752
H      0.890453    1.584256   -2.890258
H      1.757170    2.770339   -1.805040
H     -0.367503    3.754611   -2.119203
H     -0.239151    3.097385   -0.475651
H      3.144591    1.797300   -0.749040
H      0.062190   -1.603616    0.976015
H     -2.889497    0.963122   -0.557117
H     -1.489165    1.626364    0.323139
H     -1.055163   -0.399195   -1.881045
H      1.299856   -1.882259   -0.661578
H     -0.995912   -1.768707   -0.943231
H      1.895200    2.023794    0.778526
H     -3.224598    0.951268   -0.248669
