50

C     -4.016466    0.982533   -0.281400
C     -3.454171   -0.557963    1.500129
C      1.697501   -3.153195   -0.988796
C      1.455242   -3.666605    0.256149
C      1.317234   -1.879563   -1.288520
C      1.555423    1.779696    0.909588
C      2.341740    1.435898   -1.269974
C      2.623036    2.601532    1.188888
C      3.430179    2.261836   -1.015670
C     -1.020215    0.611090    0.027645
C      0.821848   -2.887320    1.211148
C     -2.053769   -0.382437   -0.447710
C      1.381289    1.176466   -0.315125
C      3.574848    2.853292    0.228872
C      0.271233    0.295589   -0.670615
C      0.684969   -1.100712   -0.336077
Br     5.084732    3.977808    0.532756
N      0.459107   -1.635309    0.884951
N     -3.341343   -0.212178    0.124317
C     -0.678066    1.101790   -0.077186
C      0.576774    1.160683    0.183406
C     -1.453079   -0.072977   -0.233821
C      1.427950    0.037605    0.364570
O     -2.720166    0.079696   -0.497756
O     -1.073292   -1.370565   -0.149973
O      2.690651    0.231229    0.626313
O      1.137518   -1.300264    0.309241
H     -3.420929    1.846958    0.034680
H     -5.024115    0.979630    0.173140
H     -4.140024    0.939289   -1.392056
H     -3.367765   -1.648163    1.638846
H     -4.481584   -0.230981    1.837962
H     -2.752163    0.018994    2.138467
H      2.192044   -3.721609   -1.777612
H      1.762990   -4.676045    0.475968
H      1.492932   -1.450680   -2.252110
H      0.829612    1.602543    1.676661
H      2.306055    1.011822   -2.276352
H      2.747927    3.073273    2.165951
H      4.175812    2.457011   -1.773484
H     -0.863200    0.401653    1.122762
H     -1.334487    1.647474   -0.047799
H      0.652080   -3.332220    2.175708
H     -2.059105   -0.346586   -1.545808
H     -1.668554   -1.397678   -0.178741
H      0.140062    0.324857   -1.779525
H     -1.196844    2.080648   -0.188732
H      1.070908    2.175233    0.282271
H     -1.569799   -2.150599   -0.530029
H      1.787445   -1.972480   -0.088303
