13

C      1.937699   -0.285299    0.053815
C     -1.972937   -0.022895   -0.206394
C      0.599201    0.312881   -0.300981
C     -0.626017   -0.061105    0.470435
S      0.035280    1.576043    0.893752
H      2.115856   -1.268304   -0.401462
H      2.710829    0.431160   -0.324288
H      2.073653   -0.335609    1.154354
H     -2.073699    0.933280   -0.771752
H     -2.023252   -0.826274   -0.979600
H     -2.762211   -0.148800    0.549082
H      0.454807    0.523836   -1.381278
H     -0.469210   -0.828914    1.244315
