37

C      0.431882   -2.744279    0.123829
C     -2.744688    1.643943    0.795738
C      4.047633    0.137789    0.878495
C     -0.011286    1.651877    0.393440
C     -1.052652    1.406899   -1.783248
C     -1.839180   -1.988339    0.340481
C     -2.238286   -0.715010    1.102076
C      2.465971   -0.376582   -1.049759
C      1.433174   -0.309218   -0.257046
C     -0.443567   -1.769600   -0.074670
C     -2.170829    0.409057    0.123884
C      3.820830   -0.161609   -0.546157
C      0.018025   -0.517271   -0.699116
C     -0.828892    0.666371   -0.454371
O      4.801744   -0.235573   -1.349874
H      1.481702   -2.646032   -0.161098
H      0.161561   -3.691225    0.577591
H     -3.848870    1.539518    0.819250
H     -2.414498    1.682205    1.869592
H     -2.516560    2.572270    0.255345
H      3.835211    1.202936    1.131654
H      3.454675   -0.566735    1.501751
H      5.127700   -0.016485    1.123941
H      0.991243    1.686628   -0.098176
H     -0.422743    2.669053    0.328646
H      0.121960    1.281759    1.412441
H     -1.372941    2.443124   -1.542092
H     -0.129435    1.412608   -2.390006
H     -1.889831    0.889045   -2.283869
H     -2.468925   -1.976238   -0.581403
H     -1.964768   -2.886344    0.940928
H     -1.616943   -0.581299    1.993066
H     -3.310747   -0.867728    1.366224
H      2.298526   -0.596221   -2.094406
H      1.571977   -0.087636    0.809928
H     -2.867708    0.163648   -0.715921
H      0.089535   -0.725308   -1.807090
