19

C      2.649244    0.260420   -0.595988
C     -2.566075    0.705784   -0.507042
C      0.669172   -0.980946    0.327513
C     -0.755521   -0.536726    0.684736
C      1.276174    0.376728   -0.055785
C     -1.347456   -0.145174   -0.671052
S      0.053646    0.836273   -1.348311
H      2.851545    0.942406   -1.454357
H      2.965532   -0.794254   -0.822855
H      3.363273    0.584589    0.216739
H     -2.301184    1.778834   -0.630382
H     -3.347741    0.442562   -1.255243
H     -2.964874    0.547349    0.521576
H      0.605262   -1.635549   -0.555013
H      1.168350   -1.438256    1.174592
H     -0.648765    0.366342    1.304557
H     -1.318751   -1.326405    1.175531
H      1.135739    1.071414    0.765752
H     -1.487570   -1.055391   -1.251100
