13

C     -1.941012    0.191194   -0.261361
C      1.898223   -0.456426   -0.300545
C     -0.478967    0.602657   -0.442578
C      0.515645   -0.259599    0.261450
S      0.274495    1.418663    0.955720
H     -2.560670    1.106558   -0.329275
H     -2.249820   -0.544991   -1.042461
H     -2.111364   -0.241882    0.755450
H      2.611233   -0.288661    0.552837
H      2.015004   -1.504621   -0.602655
H      2.083433    0.230097   -1.137952
H     -0.228980    0.865747   -1.478634
H      0.172780   -1.118736    0.885096
