27

C     -2.432998   -0.315028    0.840857
C     -2.568272    1.036284   -1.166527
C      3.780823    0.388717    0.329288
C      1.553364    1.381144    0.196783
C      0.081182    1.228338    0.244624
C      0.342158   -1.228894   -0.141850
C     -1.867582   -0.139290   -0.527437
C      2.283789    0.293077    0.367632
C     -0.367843    0.012795   -0.558261
C      1.601569   -0.967912    0.590854
O      2.118387   -1.784997    1.402599
H     -2.778106    0.660242    1.272690
H     -3.369149   -0.931272    0.764598
H     -1.789595   -0.808375    1.559867
H     -2.208885    1.239357   -2.188861
H     -2.510495    1.950508   -0.515191
H     -3.652410    0.782383   -1.202136
H      4.093044    1.389198    0.681864
H      4.109281    0.188531   -0.711170
H      4.151318   -0.433926    0.969353
H      2.027204    2.362704    0.025538
H     -0.246743    1.173125    1.299209
H     -0.354295    2.159906   -0.169447
H      0.581483   -1.843182   -1.062056
H     -0.349277   -1.882745    0.433603
H     -2.139375   -1.033365   -1.125504
H     -0.088578    0.231964   -1.610919
