36

C      3.081542   -0.333959   -0.323397
C      1.789002   -1.803037    1.104792
C     -1.374861    3.401297   -0.224260
C     -1.882006   -3.505423   -0.347804
C     -0.490627    1.499737   -1.462046
C      0.813697    1.412254   -0.737676
C     -1.528315    1.101970    0.778679
C      1.665022   -0.826732   -0.053429
C     -1.548707    1.915923   -0.480488
C     -1.394943   -2.352697    0.450241
C      0.818205    0.374536    0.363083
C     -0.589311   -0.083054    0.702268
O     -1.290150   -2.477919    1.674230
O     -1.044292   -1.139208   -0.056728
H      3.363093    0.496334    0.355843
H      3.781699   -1.174228   -0.122931
H      3.210513   -0.074734   -1.398026
H      1.442148   -2.833550    0.801310
H      1.233944   -1.436264    1.998935
H      2.835093   -1.947776    1.440609
H     -2.350273    3.739320    0.233391
H     -0.540254    3.631059    0.445164
H     -1.323640    3.906228   -1.201290
H     -2.481208   -3.117377   -1.221784
H     -2.615755   -4.054260    0.280147
H     -1.070805   -4.141182   -0.736587
H     -0.408165    2.249171   -2.247074
H     -0.693500    0.527033   -1.941612
H      1.624616    1.212020   -1.469995
H      1.030006    2.437428   -0.327656
H     -1.129115    1.760172    1.582107
H     -2.500133    0.757450    1.123422
H      1.289115   -1.340666   -0.934453
H     -2.534420    1.836478   -1.026700
H      1.343655    0.828320    1.227913
H     -0.530869   -0.444662    1.751800
