39

C     -2.208192   -1.875439    1.290395
C     -2.935976   -0.922864   -0.864958
C      2.743775   -2.694540    0.631544
C      0.982768    3.413262    0.504619
C      2.617743   -0.631621   -0.848751
C     -0.634769    2.305805   -1.013980
C      2.246340    0.800131   -0.736878
C     -1.704171    1.518257   -0.372905
C      0.692690   -1.309432    0.547724
C     -2.369367   -0.608317    0.502971
C      1.968854   -1.539770    0.128467
C      0.525583    2.320334   -0.048902
C     -1.225852    0.330638    0.473119
C      1.111787    0.991464    0.225692
C      0.071136   -0.124430   -0.049174
H     -3.236777   -2.279446    1.591570
H     -1.711817   -1.731369    2.258701
H     -1.793926   -2.680596    0.650907
H     -3.283342   -1.978850   -0.874373
H     -2.198297   -0.828760   -1.674223
H     -3.821637   -0.310065   -1.128189
H      3.523056   -2.288669    1.315255
H      3.315197   -3.138403   -0.229692
H      2.114214   -3.447116    1.141422
H      1.809085    3.347764    1.179784
H      0.485860    4.359803    0.243168
H      2.460029   -0.986898   -1.902933
H      3.737651   -0.691140   -0.703008
H     -0.964201    3.358394   -1.112045
H     -0.315746    1.955835   -2.014175
H      2.002096    1.219518   -1.736401
H      3.092603    1.432919   -0.346765
H     -2.332014    2.187240    0.275438
H     -2.388077    1.139426   -1.152523
H      0.337551   -2.012650    1.248307
H     -3.214176   -0.052579    1.021188
H     -1.082185    0.742078    1.501674
H      1.491856    0.896248    1.261664
H      0.090649   -0.186162   -1.183735
