30

C      3.716102   -1.083776   -0.472253
C     -3.128912    0.014917    0.913707
C     -1.930270    1.071323   -1.024344
C      1.847805    0.974164   -0.760527
C      2.460530   -1.325891   -0.161012
C     -0.204215    0.544021    1.431441
C      1.262491    0.138738    1.448017
C     -0.738922   -0.516995    0.504313
C     -2.042054   -0.131764   -0.139973
C      1.426291   -0.275671   -0.008366
O     -2.428525   -1.215306   -0.944197
O      0.224169   -0.770611   -0.433062
H      4.043585   -0.072441   -0.632140
H      4.425457   -1.883447   -0.570369
H     -4.067588    0.255502    0.353784
H     -3.282215   -0.976741    1.366108
H     -2.892125    0.800621    1.650826
H     -1.356763    0.750727   -1.935815
H     -2.958710    1.324551   -1.369195
H     -1.507562    1.956521   -0.544716
H      2.467095    1.651175   -0.136547
H      0.949651    1.550173   -1.065145
H      2.456826    0.705511   -1.651682
H      2.145560   -2.350073   -0.002946
H     -0.637813    0.476361    2.449430
H     -0.245586    1.557301    1.009847
H      1.345311   -0.720577    2.139380
H      1.923312    0.983855    1.707921
H     -0.959721   -1.411230    1.149554
H     -2.313205   -2.020937   -0.373986
