38

C      3.427526    1.714110    0.405252
C      3.873402   -0.636839    0.320901
C     -0.896871    1.531269    1.481078
C     -3.224826   -0.508621   -0.612276
C     -2.803649   -1.771586    0.093054
C      0.838801    1.534124   -0.675218
C     -2.720697    0.619104    0.223540
C     -0.634450    1.265875   -0.993583
C      0.832914   -0.648802    0.613191
C     -0.745262   -3.084708    0.500326
C      2.914975    0.526030    0.114497
C      1.540388    0.272106   -0.368220
C     -1.307862   -1.763517    0.327763
C     -0.627302   -0.673941    0.390033
C     -1.242487    0.670367    0.266712
O      0.421069   -3.418880    0.734198
H      4.463727    1.822195    0.764900
H      2.852758    2.629267    0.298775
H      3.382792   -1.573601    0.050733
H      4.713327   -0.479270   -0.390278
H      4.257496   -0.622269    1.364391
H      0.139980    1.489870    1.783626
H     -1.160085    2.585607    1.256087
H     -1.546801    1.212417    2.322299
H     -2.919731   -0.471475   -1.664864
H     -4.333969   -0.475357   -0.595971
H     -3.271529   -1.791314    1.090096
H     -3.094688   -2.665125   -0.456813
H      1.265758    1.966144   -1.601761
H      0.926637    2.313756    0.105918
H     -3.062551    0.391310    1.279978
H     -3.166216    1.602401   -0.059400
H     -0.626742    0.460827   -1.752002
H     -1.133290    2.142282   -1.374646
H      1.343200   -1.608976    0.509223
H      1.096297   -0.283086    1.639167
H     -1.442454   -3.953913    0.415472
H      1.670415   -0.317781   -1.324608
