29

C     -2.342238    0.027010   -0.552782
C     -1.338005    1.165360    1.357156
C      1.968016    0.581436    1.017214
C      0.051023   -2.015733    0.021026
C     -0.770569   -1.157741    0.911633
C      1.433073   -1.485077   -0.267072
C      0.173657    1.351189   -1.620573
C      0.084602    0.547245   -0.590969
C      1.543367    1.382496   -2.114337
C     -1.074773    0.157545    0.268872
C      1.437677    0.025283   -0.318988
O      1.993542    2.059603   -3.100417
O      2.252650    0.532996   -1.300515
H     -2.873076   -0.909993   -0.394912
H     -2.100398    0.121516   -1.637828
H     -3.049745    0.867942   -0.341041
H     -0.796136    0.943583    2.297868
H     -1.167936    2.199084    1.003341
H     -2.428053    1.101882    1.612372
H      1.862994   -0.168764    1.826870
H      2.992388    0.937066    0.900080
H      1.323106    1.442382    1.288926
H     -0.508785   -2.180736   -0.919883
H      0.181581   -3.008224    0.499357
H     -0.365635   -1.039645    1.933947
H     -1.757358   -1.691813    1.041551
H      2.145762   -1.824886    0.500727
H      1.754308   -1.898410   -1.237067
H     -0.625039    1.937401   -2.084554
