42

C      0.990988   -2.744779   -0.892597
C     -3.298263   -1.319311    0.161958
C     -3.687567    0.948615    0.980935
C      2.357734    1.432888   -1.084767
C      3.256416   -0.399960    1.058059
C      3.018463   -1.314130   -0.092873
C     -1.003368    1.745039    0.142092
C      2.225363    0.651215    1.262062
C      0.428698    2.011837    0.381690
C     -0.584444   -0.436114   -0.792383
C      1.583418   -1.425315   -0.466584
C     -1.379908    0.282304    0.276974
C      0.834622   -0.324564   -0.418004
C     -2.858347    0.115647    0.041632
C      1.406227    0.956749   -0.002724
O     -3.182697    0.527803   -1.265115
H      0.322859   -3.154232   -0.120399
H      1.822218   -3.436015   -1.040437
H      0.466345   -2.644088   -1.863377
H     -3.244002   -1.836126   -0.825540
H     -2.684586   -1.904469    0.864500
H     -4.373122   -1.390166    0.474607
H     -3.636954    2.025606    0.775157
H     -3.407246    0.670989    2.017158
H     -4.749999    0.587173    0.863240
H      3.402391    1.383689   -0.719729
H      2.265481    0.780691   -1.975282
H      2.165846    2.494628   -1.354849
H      4.288295    0.006462    0.971988
H      3.281318   -1.042372    1.987872
H      3.564925   -0.987796   -1.011361
H      3.408108   -2.343826    0.102604
H     -1.622419    2.370136    0.817011
H     -1.228710    2.010769   -0.929753
H      1.485368    0.312847    2.009032
H      2.713247    1.592560    1.588658
H      0.695431    2.944341   -0.200670
H      0.535486    2.353785    1.453822
H     -0.928674   -1.469287   -0.949427
H     -0.749000    0.138617   -1.739552
H     -1.130194   -0.074790    1.287488
H     -2.769745   -0.097049   -1.892817
