28

C     -2.946858    0.793512   -0.229922
C     -2.267187   -1.478008    0.320344
C      3.595855    0.256559    0.287106
C      1.578879   -1.020024   -0.342902
C      1.324720    1.236261    0.515649
C      0.377292   -0.948895   -0.876031
C     -0.142706    0.829960    0.712220
C     -1.982271   -0.327580   -0.555891
C      2.133883   -0.039246    0.616548
C     -0.565713    0.157908   -0.554939
H     -3.020236    1.496645   -1.109412
H     -2.678030    1.336891    0.692904
H     -3.970845    0.352529   -0.117693
H     -1.404784   -2.044909    0.677215
H     -2.939647   -2.223458   -0.197058
H     -2.857127   -1.150751    1.217109
H      3.690045    0.829775   -0.657765
H      4.045547    0.810565    1.135132
H      4.110237   -0.715319    0.232213
H      2.223283   -1.855509   -0.618005
H      1.388875    1.639711   -0.524367
H      1.631381    1.998798    1.252901
H      0.075739   -1.730617   -1.572466
H     -0.139582    0.152310    1.590162
H     -0.688859    1.760916    0.894870
H     -2.214505   -0.627014   -1.617596
H      2.106670   -0.394476    1.659198
H     -0.464055    0.903466   -1.374835
