38

C      3.356731   -1.594101    0.748846
C      3.781923    0.777315    0.457537
C     -1.101085   -1.665141    0.844433
C     -3.359393    0.276233    0.246784
C     -2.858423    1.669111    0.151068
C      1.018655   -1.546184   -0.839297
C     -2.608816   -0.535768   -0.793945
C     -0.370037   -1.259270   -1.426150
C      0.849934    0.742362    0.232699
C     -0.823388    2.977144    0.705145
C      2.936145   -0.462768    0.251070
C      1.680189   -0.259903   -0.514463
C     -1.368615    1.693118    0.290202
C     -0.598893    0.629037    0.077704
C     -1.203869   -0.675128   -0.291658
O     -1.520190    3.999586    0.906910
H      4.298406   -1.634453    1.300181
H      2.796554   -2.500743    0.628881
H      3.455480    1.305310    1.374182
H      4.841448    0.467684    0.563917
H      3.698163    1.431652   -0.433648
H     -1.031259   -2.665468    0.416106
H     -0.190912   -1.363174    1.432013
H     -1.932282   -1.644979    1.546715
H     -3.201846   -0.083766    1.279460
H     -4.440584    0.181836    0.045317
H     -3.317029    2.302467    0.944065
H     -3.116036    2.108692   -0.851714
H      0.923305   -2.272088   -0.011217
H      1.581339   -2.049466   -1.650090
H     -2.614043    0.040952   -1.723989
H     -3.045596   -1.523656   -0.950619
H     -0.221900   -0.514263   -2.210258
H     -0.807390   -2.163084   -1.848078
H      1.142947    1.743618   -0.210813
H      1.128166    0.808067    1.294383
H      0.229235    3.078914    0.853911
H      2.012965    0.180304   -1.504070
