42

C     -1.059597    2.939196    0.625236
C      3.718382   -1.323148    0.439015
C      3.100838    0.673524   -0.824644
C     -1.641705   -1.731643    1.028933
C     -3.662706    0.261351   -0.017233
C     -3.094191    1.640527   -0.168211
C      0.933616   -1.471668   -0.641891
C     -2.779941   -0.670248   -0.837577
C     -0.474505   -1.360988   -1.133121
C      0.511746    0.656474    0.668300
C     -1.663095    1.613057    0.231595
C      1.317633   -0.568772    0.469443
C     -0.906659    0.530760    0.255632
C      2.774293   -0.154794    0.385850
C     -1.425870   -0.813583   -0.120943
O      3.111048    0.653746    1.499937
H     -0.522422    3.345745   -0.263347
H     -0.381834    2.723274    1.474206
H     -1.827729    3.639609    0.944617
H      3.511430   -1.999237    1.299949
H      3.793572   -1.872850   -0.518972
H      4.735901   -0.907538    0.629699
H      2.995878    1.770680   -0.622049
H      4.210013    0.547998   -1.007004
H      2.617333    0.365581   -1.751670
H     -1.924297   -1.177594    1.944995
H     -2.480400   -2.415105    0.783216
H     -0.787388   -2.393098    1.267568
H     -4.658876    0.252819   -0.486603
H     -3.671518   -0.033733    1.045613
H     -3.623809    2.402535    0.434897
H     -3.143261    1.889304   -1.268051
H      1.114894   -2.553647   -0.346427
H      1.585356   -1.367369   -1.560406
H     -2.630101   -0.234352   -1.836564
H     -3.244965   -1.657294   -0.926464
H     -0.474166   -0.635499   -1.985123
H     -0.800834   -2.350875   -1.516676
H      1.025143    1.495475    0.147749
H      0.490599    0.891394    1.769827
H      1.266984   -1.177724    1.422018
H      4.065211    0.577708    1.656662
