28

C     -2.746826    0.926045    0.821347
C     -2.784278   -0.755344   -0.974661
C      3.729169    0.195159    0.109381
C      0.171603   -0.790915   -0.911626
C      1.573089   -1.063390   -0.541032
C     -1.961569    0.314666   -0.308391
C     -0.649560   -0.164768    0.211180
C      0.123062    1.003030    0.678149
C      1.508926    0.830788    1.109108
C      2.240368   -0.084882    0.338748
O     -0.387710    2.089215    0.702840
O      1.918743   -0.333293    1.745068
H     -2.735175    2.041684    0.776833
H     -3.812392    0.616889    0.736681
H     -2.321136    0.661392    1.824602
H     -3.719067   -0.250429   -1.335854
H     -2.289404   -1.166632   -1.865186
H     -3.087400   -1.559719   -0.295190
H      4.112097    0.862672    0.906315
H      4.258831   -0.767859    0.200031
H      3.809777    0.666353   -0.872535
H     -0.336344   -1.771173   -1.149152
H      0.107822   -0.174356   -1.809876
H      2.183819   -1.150896   -1.484666
H      1.628244   -2.085216   -0.063185
H     -1.777016    1.104816   -1.049683
H     -0.758294   -0.939410    1.009880
H      2.000622    1.745575    1.490873
