28

C     -2.711750   -0.005825   -1.210420
C     -2.735989   -0.573047    1.137769
C      3.715661    0.238262    0.283472
C      0.132261    0.454555   -1.157892
C      1.493279    1.003109   -0.780062
C     -1.861757   -0.566246   -0.078310
C     -0.682381    0.372181    0.109791
C      0.216066   -0.048745    1.195702
C      1.496610   -0.737227    1.009106
C      2.284039   -0.047987   -0.034407
O     -0.132198    0.194370    2.339759
O      1.826383   -1.330773   -0.197767
H     -3.441681   -0.802861   -1.526421
H     -2.132339    0.268537   -2.089347
H     -3.297955    0.872429   -0.849980
H     -3.337693    0.360658    1.222007
H     -3.504703   -1.388063    0.994921
H     -2.232519   -0.794058    2.073799
H      3.849772    0.327403    1.384099
H      4.413166   -0.558443   -0.043444
H      3.977018    1.225206   -0.150761
H     -0.299273    1.160128   -1.894204
H      0.232202   -0.536810   -1.645524
H      1.361256    1.898054   -0.145251
H      2.053187    1.267952   -1.712887
H     -1.553080   -1.577153   -0.370336
H     -1.124899    1.386117    0.265528
H      1.997318   -1.173932    1.871058
