26

C      3.146280    0.937645   -0.150122
C     -1.607466    1.018934   -0.885089
C     -2.898870   -0.092399    0.978656
C      1.685064   -1.137068   -0.584395
C      0.215788   -1.149966   -0.996402
C      0.907062    0.647188    0.862692
C      1.867602    0.186467    0.090785
C     -0.668718   -1.086038    0.216972
C     -0.358222    0.013171    1.164861
C     -1.572566    0.160799    0.341549
H      2.976079    2.011426   -0.044144
H      3.837683    0.614372    0.670322
H      3.560608    0.625458   -1.123789
H     -1.877181    0.350599   -1.751897
H     -2.481044    1.729706   -0.810939
H     -0.709027    1.610443   -1.061423
H     -2.881804   -1.032003    1.596282
H     -3.696530   -0.172251    0.208899
H     -3.128272    0.719402    1.705502
H      2.271549   -1.206522   -1.522209
H      1.938059   -1.967859    0.076414
H     -0.052284   -2.023266   -1.588046
H      0.076685   -0.217589   -1.605148
H      1.096460    1.636118    1.332305
H     -1.090589   -2.038100    0.610685
H     -0.556346   -0.138668    2.267681
