39

C     -3.697749   -1.976225   -0.322427
C      0.281345    2.519500    1.290470
C      2.472422   -1.751337    0.798277
C      3.388102   -0.617377   -1.237351
C     -2.231308    1.435877    0.588454
C     -3.049140    0.282991    0.377735
C     -1.294891    1.955305   -0.419031
C     -1.327520   -1.030139   -0.672293
C     -0.164959   -0.828959    0.217685
C      2.290889    0.749621    0.512800
C     -2.670421   -0.835545   -0.180474
C      0.105804    1.869523    0.150849
C      1.207554    1.143081   -0.475735
C      0.974889   -0.325439   -0.685117
C      2.353184   -0.613839   -0.162082
H     -4.706625   -1.549663   -0.407930
H     -3.375883   -2.581739   -1.174037
H     -3.561290   -2.565742    0.608741
H      1.259434    2.495690    1.746430
H     -0.485994    3.080329    1.808262
H      2.134551   -2.690721    0.290345
H      1.950894   -1.578388    1.755129
H      3.547893   -1.875539    1.043564
H      4.215723    0.063287   -0.900594
H      2.985032   -0.175155   -2.175916
H      3.784794   -1.637368   -1.439112
H     -1.755076    1.498394    1.623467
H     -2.983816    2.309512    0.735743
H     -4.129251    0.274139    0.702367
H     -1.403686    3.093078   -0.549864
H     -1.374359    1.615849   -1.443980
H     -1.259258   -2.158440   -0.919682
H     -1.167992   -0.655520   -1.736106
H      0.241329   -1.794123    0.661984
H     -0.244320   -0.156833    1.053896
H      1.965985    0.607806    1.558617
H      3.223620    1.315319    0.458762
H      1.667465    1.676571   -1.330488
H      0.832626   -0.587778   -1.751355
