28

C      2.392295    1.130420    0.948360
C     -2.355740   -0.072947    1.190943
C     -1.604651    1.016714   -0.895403
C      1.627964   -0.440661   -0.851209
C      0.364833   -1.120045   -1.299754
C      0.105852   -1.167000    1.135319
C      1.227658    0.710608    0.070594
C     -0.648878   -1.242723   -0.199875
C      0.061538    0.356458    0.929140
C     -1.207680    0.128787    0.193164
H      2.148930    2.164192    1.328629
H      2.623440    0.421957    1.740014
H      3.253291    1.304208    0.238601
H     -3.311764    0.179563    0.691940
H     -2.433669   -1.123454    1.515045
H     -2.221297    0.622925    2.058751
H     -2.041554    0.416409   -1.741465
H     -2.460811    1.674698   -0.565373
H     -0.861974    1.673010   -1.329221
H      2.129638   -0.019285   -1.771303
H      2.363985   -1.108271   -0.393254
H     -0.061766   -0.611036   -2.193394
H      0.629250   -2.140510   -1.625286
H      1.100177   -1.602914    1.129676
H     -0.488051   -1.514869    1.994694
H      1.043403    1.577859   -0.608126
H     -1.381994   -2.042267   -0.271517
H      0.007575    0.828176    1.921010
