39

C      3.930485   -1.001418    0.792549
C      5.095872    1.092170   -0.066645
C     -4.006637    0.685961    1.622754
C     -0.862388   -1.295925    0.669517
C      1.590740   -0.273022   -0.766180
C      2.834216    0.548523   -0.742429
C     -3.588364   -0.785615   -0.270000
C     -2.694060   -1.241589   -1.402111
C      0.471557    0.615958   -0.249937
C     -2.043828    1.163346   -1.398029
C      3.896995    0.212003   -0.030648
C     -3.207785    0.239556    0.472390
C     -1.549684   -0.264179   -1.517496
C     -1.956683    0.931967    0.121435
C     -0.847152   -0.072804   -0.214837
H      4.174323   -1.887515    0.176651
H      4.729368   -0.919975    1.558070
H      2.991277   -1.187226    1.349861
H      4.880179    2.079094   -0.536955
H      5.894683    0.609327   -0.685036
H      5.428526    1.231349    0.983593
H     -3.853426    0.034655    2.527915
H     -3.794008    1.713893    1.944821
H     -5.106266    0.639941    1.430914
H      0.033292   -1.304919    1.336331
H     -1.765353   -1.411294    1.264812
H     -0.754935   -2.186706    0.017750
H      1.421754   -0.521881   -1.855336
H      1.658923   -1.196083   -0.193998
H      2.820367    1.450004   -1.348935
H     -4.505317   -1.331404   -0.126647
H     -3.299688   -1.141371   -2.335119
H     -2.339701   -2.262006   -1.263318
H      0.800311    0.952544    0.763911
H      0.499919    1.527532   -0.877254
H     -1.312804    1.920234   -1.682630
H     -3.081703    1.321883   -1.743099
H     -0.930034   -0.477579   -2.397026
H     -1.652972    1.792570    0.705305
