42

C      3.560703    1.882927    1.178522
C      3.764391    0.081342   -0.414432
C     -1.607013    2.011923   -0.556073
C     -0.277742   -0.986497    1.368530
C     -3.252334   -1.033785    0.701791
C     -3.090447    0.450265    0.548265
C     -2.499036   -1.838095   -0.300518
C     -0.267943   -1.889137   -1.483239
C      0.979540   -1.067413   -1.200949
C      2.858195    1.244512   -0.028556
C     -1.661168    0.898443    0.467109
C     -1.388528   -1.073730   -0.893112
C      0.509216    0.221482   -0.594388
C      1.493484    0.828805    0.314947
C     -0.720951   -0.228950    0.171192
O      1.148412    1.014747    1.492726
H      3.449999    1.173780    2.042718
H      4.632306    1.986265    0.960524
H      3.057737    2.808790    1.476930
H      4.841172    0.406135   -0.268838
H      3.693120   -0.190059   -1.475667
H      3.657492   -0.782716    0.264817
H     -2.520929    2.649020   -0.394328
H     -0.749230    2.690821   -0.393342
H     -1.683298    1.659134   -1.601454
H     -0.422301   -0.465891    2.334993
H      0.786370   -1.259072    1.264652
H     -0.832959   -1.949781    1.415324
H     -4.351028   -1.235045    0.509548
H     -3.116767   -1.344328    1.758972
H     -3.563164    0.939140    1.420467
H     -3.691094    0.763263   -0.338813
H     -2.094335   -2.804613    0.123495
H     -3.159590   -2.178609   -1.150273
H     -0.361646   -1.989737   -2.583751
H     -0.245795   -2.874516   -1.018658
H      1.501515   -0.808270   -2.152214
H      1.611533   -1.682771   -0.549538
H      2.914923    1.990627   -0.837678
H     -1.333523    1.368873    1.439517
H     -1.827868   -0.368987   -1.657193
H      0.258581    0.981708   -1.362024
