42

C      2.807050   -1.176732   -1.235820
C      3.248302   -1.594775    1.160233
C     -4.225164   -0.857908    0.800374
C     -1.867991    2.289368   -0.055127
C      0.562201    2.323954   -0.148512
C      1.758086    1.475907   -0.522148
C     -2.457244   -0.730557   -1.125732
C     -0.976543   -0.885596   -1.049059
C     -1.837294   -0.068654    0.950257
C      2.981160   -0.544437    0.095291
C     -2.853546   -0.541152    0.288398
C     -0.655258    1.481425   -0.474687
C      1.853661    0.375130    0.499489
C      0.581414   -0.307010    0.806808
C     -0.623540    0.112884    0.069002
O      0.764927   -1.688466    0.551896
H      1.882387   -0.871952   -1.776835
H      3.647033   -0.907901   -1.927185
H      2.867311   -2.303566   -1.166626
H      4.308496   -1.605092    1.486483
H      2.619220   -1.396071    2.053579
H      3.049250   -2.612430    0.726741
H     -4.891667    0.017928    0.670599
H     -4.186082   -1.084075    1.884869
H     -4.649585   -1.737456    0.288965
H     -2.607956    2.399578   -0.888021
H     -2.406925    1.871982    0.791263
H     -1.598902    3.341082    0.221025
H      0.590533    2.658516    0.895100
H      0.536671    3.191502   -0.840275
H      2.658956    2.119777   -0.423740
H      1.656330    1.142028   -1.548656
H     -2.692846    0.160212   -1.743691
H     -2.903919   -1.651184   -1.567450
H     -0.485102   -0.561637   -2.011103
H     -0.722726   -1.912936   -0.767527
H     -1.846997    0.170906    2.009915
H      3.905544    0.101484    0.070163
H     -0.692342    1.448591   -1.598556
H      2.226750    0.885526    1.438989
H      0.360250   -0.277471    1.911706
H      0.316098   -2.250721    1.199605
