30

C      3.373596    0.305431   -0.280503
C     -2.030902   -1.191902   -0.242873
C     -2.057373    0.946788   -1.415065
C      1.304382   -1.823193    0.042304
C      2.213265    0.208822   -0.881189
C     -0.344130    0.179380    1.866241
C      1.012884    0.294077    1.198425
C     -1.294481    0.866742    0.889329
C     -1.264197    0.125095   -0.415296
C      1.016718   -0.329091   -0.167338
O     -0.778700    2.143203    0.659915
O     -0.061913   -0.141678   -0.930544
H      4.229736    0.696333   -0.809404
H      3.481530   -0.001281    0.735573
H     -3.016536   -1.009029    0.210344
H     -2.120438   -1.695570   -1.227019
H     -1.422688   -1.847216    0.421722
H     -2.755852    0.326517   -2.007788
H     -2.666650    1.731304   -0.920403
H     -1.345363    1.506007   -2.087725
H      2.380497   -2.034605    0.024163
H      0.923870   -2.148828    1.040499
H      0.827309   -2.417883   -0.758638
H      2.121400    0.527422   -1.922678
H     -0.629431   -0.861306    2.071136
H     -0.306253    0.793725    2.788030
H      1.230316    1.379842    1.101878
H      1.776089   -0.202695    1.832711
H     -2.330594    0.889804    1.266292
H     -1.466091    2.783786    0.349262
