30

C      3.133666    1.277142   -0.184301
C     -1.886647    1.240411    1.468449
C     -1.391947    1.279810   -0.930823
C      1.963420   -0.882855    1.076943
C      2.028996    0.795164   -0.713459
C     -0.659927   -1.803365   -0.401230
C      0.536751   -1.074000   -0.931554
C     -1.593997   -0.861132    0.288845
C     -1.064599    0.550233    0.366551
C      1.137418   -0.110156    0.044782
O     -2.816257   -0.796681   -0.391196
O      0.235883    0.651348    0.735576
H      3.457174    1.042893    0.832492
H      3.784506    1.938292   -0.738438
H     -1.834623    0.672626    2.415496
H     -1.456261    2.252062    1.596600
H     -2.919056    1.327359    1.082361
H     -0.499379    1.781264   -1.355138
H     -2.155403    2.063034   -0.791314
H     -1.792621    0.587994   -1.703807
H      3.015718   -0.947064    0.750311
H      1.900426   -0.399576    2.081419
H      1.539034   -1.923232    1.165134
H      1.761956    1.059988   -1.716783
H     -1.175505   -2.284226   -1.273832
H     -0.312270   -2.641856    0.233601
H      0.313861   -0.549148   -1.877233
H      1.345784   -1.817947   -1.185591
H     -1.825001   -1.175405    1.328095
H     -2.771099   -1.252979   -1.271956
