36

C      3.499772    2.884112   -0.218815
C     -5.018450    1.430776   -0.004138
C      3.140548    1.773628    0.788260
C      3.535711    0.483744    0.221852
C      2.683490   -0.492526   -0.002209
C      1.224068   -0.457274    0.271804
C     -1.489891   -2.058044   -1.069463
C     -0.244933   -2.912478   -0.837569
C     -1.507120    0.006863    0.342748
C     -0.989882   -0.653783   -0.903546
C      0.485328   -0.664362   -1.026449
C      0.787833   -2.050851   -1.475104
C     -2.981232    0.099717    0.372875
O      1.703699   -2.370716   -2.213484
O     -3.674645   -0.875705    0.741982
O     -3.607879    1.261947   -0.005168
H      3.086435    2.583552   -1.219542
H      4.587409    2.996906   -0.320923
H      2.978617    3.792413    0.082583
H     -5.466351    1.083534   -0.952456
H     -5.204964    2.523819    0.129519
H     -5.462737    0.915849    0.880801
H      3.711000    2.014891    1.729656
H      2.075611    1.918286    0.966490
H      4.606557    0.330909   -0.027292
H      3.132129   -1.411357   -0.436340
H      1.033016   -1.394220    0.886130
H      0.896588    0.370733    0.875930
H     -2.296886   -2.348293   -0.400554
H     -1.798557   -2.278308   -2.126780
H     -0.334461   -3.904095   -1.275061
H     -0.124124   -2.969050    0.258470
H     -1.220763   -0.622381    1.237068
H     -1.109917    1.016783    0.458721
H     -1.439088   -0.068428   -1.761695
H      0.804070    0.043410   -1.812856
