31

C     -1.731898    2.132949   -0.824172
C      0.932510   -1.126437   -1.269942
C     -1.885540   -1.477346    0.325750
C     -2.026337   -0.353528   -0.683250
C      2.709379    0.257480    0.439826
C     -0.446571   -1.760282    0.660992
C      1.740297   -0.762359    1.002377
C      0.684571    1.717781    0.523300
C     -1.472695    0.870055   -0.046030
C      2.126091    1.593874    0.797831
C     -0.031797    0.648009    0.212728
C      0.495240   -0.711344    0.114581
O      2.796965    2.513513    1.282011
H     -1.820356    3.013669   -0.146322
H     -0.970956    2.303657   -1.613574
H     -2.701734    2.013353   -1.342159
H      0.810651   -0.349928   -2.028069
H      1.989707   -1.528628   -1.276235
H      0.342336   -2.026257   -1.620458
H     -2.381436   -1.126761    1.254740
H     -2.429697   -2.355803   -0.064578
H     -3.125691   -0.177206   -0.831384
H     -1.547624   -0.572053   -1.643565
H      3.724154    0.139940    0.871311
H      2.735182    0.253423   -0.669691
H     -0.277962   -1.925098    1.746719
H     -0.179246   -2.714426    0.161002
H      1.450660   -0.418618    2.039261
H      2.169635   -1.764979    1.065713
H      0.272269    2.718553    0.593419
H     -1.950103    0.974801    0.967865
