30

C      3.049321   -0.525158   -0.917005
C     -1.447342   -1.569229   -0.938651
C     -2.375445   -0.804359    1.151515
C      1.893791   -0.129096    1.703157
C      1.845315   -0.902227   -0.564476
C     -0.316362    1.675121   -0.721569
C      0.947966    1.301858   -0.021052
C     -1.511837    0.860864   -0.372539
C     -1.242475   -0.500443    0.147002
C      1.054731   -0.124535    0.404418
O     -2.382821    1.595032    0.468083
O     -0.097965   -0.733554    0.776582
H      3.474556    0.391169   -0.478227
H      3.682159   -1.050422   -1.622626
H     -2.509689   -1.550127   -1.285537
H     -0.787971   -1.433003   -1.788175
H     -1.272825   -2.581746   -0.522143
H     -3.329267   -0.572675    0.624999
H     -2.301451   -0.095484    2.013455
H     -2.383555   -1.854989    1.441200
H      2.689944    0.663180    1.601686
H      2.390744   -1.111253    1.773329
H      1.284830    0.136352    2.566429
H      1.448793   -1.788541   -0.996378
H     -0.162353    1.678839   -1.836809
H     -0.543325    2.740085   -0.490215
H      1.792337    1.519531   -0.715600
H      1.118577    1.992105    0.836867
H     -2.134630    0.722860   -1.308109
H     -1.873750    2.049844    1.184834
