31

C     -2.109711    0.651102    1.402047
C      0.460075   -1.012706    1.483216
C     -1.198177   -1.721917   -0.767892
C     -2.077820   -0.523422   -0.824435
C      2.576013    0.963163   -0.888378
C      0.256595   -1.443163   -0.916177
C      2.160481   -0.113971    0.058181
C      0.374438    2.001096   -0.373473
C     -1.622774    0.660467   -0.028565
C      1.843841    2.188555   -0.465363
C     -0.120078    0.800755   -0.109223
C      0.688288   -0.403346    0.108192
O      2.355151    3.277434   -0.204596
H     -2.673603   -0.295445    1.647281
H     -1.287412    0.850997    2.108644
H     -2.879163    1.456550    1.593090
H      1.159740   -1.890804    1.537724
H     -0.539446   -1.379239    1.664450
H      0.839891   -0.285150    2.224466
H     -1.538452   -2.390139   -1.619552
H     -1.467095   -2.320748    0.134129
H     -3.097311   -0.784108   -0.482673
H     -2.145381   -0.211968   -1.904810
H      2.311366    0.674599   -1.934802
H      3.662645    1.114516   -0.761576
H      0.447668   -1.096904   -1.939105
H      0.807370   -2.393460   -0.754082
H      2.769798   -1.040062   -0.042007
H      2.444413    0.268558    1.087958
H     -0.296222    2.838160   -0.519578
H     -2.105126    1.560601   -0.513092
