51

C      3.844491   -1.838441   -0.908685
C     -0.356056    4.248818    1.472608
C      3.724820   -0.367852   -0.901031
C     -5.107643   -0.726778   -1.767759
C     -5.259798    0.640353   -1.870274
C     -3.946334   -1.275635   -1.273808
C     -4.251250    1.484302   -1.479833
C     -1.214372   -2.149320   -0.133451
C      0.166320   -2.233462   -0.747517
C      2.877317   -0.004427    1.441740
C      0.399533    0.267641    1.871248
C      1.357474   -1.865904    1.300694
C      1.630429   -0.564667    2.072090
C      2.720222    0.273986   -0.035107
C     -2.929756   -0.451130   -0.879500
C     -1.676298   -0.757491   -0.354736
C     -3.085340    0.925588   -0.983700
C     -1.076661    0.468135   -0.143270
C      1.265012   -0.088052   -0.355538
C      0.463818    2.170121    0.439428
C      0.303958    0.712579    0.417853
N     -1.932753    1.440419   -0.524345
N      1.143286   -1.479578   -0.041738
O      1.217275    2.903067   -0.189577
O     -0.394013    2.846968    1.338703
H      4.688818   -2.101736   -1.619012
H      2.990056   -2.403348   -1.295968
H      4.234216   -2.247057    0.071386
H      0.508555    4.592789    2.092772
H     -0.347882    4.757586    0.473459
H     -1.272686    4.547142    2.032946
H      4.737243    0.040799   -0.605090
H      3.646907   -0.038882   -1.980626
H     -5.925060   -1.379011   -2.085147
H     -6.209131    1.032132   -2.272418
H     -3.811201   -2.352393   -1.186754
H     -4.348702    2.553176   -1.551119
H     -1.856644   -2.867256   -0.718552
H     -1.261830   -2.484962    0.896600
H      0.458929   -3.304813   -0.721280
H      0.120266   -1.915144   -1.788483
H      3.269357    0.869277    1.996979
H      3.657500   -0.794917    1.530268
H      0.436085    1.115893    2.581525
H     -0.472957   -0.346598    2.166087
H      2.258020   -2.480058    1.394311
H      0.542343   -2.435769    1.789997
H      1.845085   -0.801335    3.110901
H      2.893928    1.378169   -0.167875
H      1.071489    0.034991   -1.432305
H     -1.736387    2.452083   -0.477096
