38

C      3.904267   -0.402727    0.280010
C      2.695501    1.746837    0.908340
C     -2.509923    1.327151   -1.225135
C     -0.357003   -0.057216    1.586176
C      1.521856   -1.219130   -1.173625
C      0.166581   -1.807921   -1.312170
C     -3.075979    0.206937    0.887499
C     -2.002172   -1.809035   -0.296466
C      0.394532    0.943503   -0.499922
C      2.698298    0.433269    0.211951
C     -2.014481    0.965491    0.134322
C      1.591002    0.060622   -0.459827
C     -0.871618   -1.150489   -0.491359
C     -3.085510   -1.243664    0.498703
C     -0.733555    0.174274    0.118354
O     -4.066013   -1.926434    0.893656
H      4.786796    0.255803    0.415225
H      4.029692   -0.909967   -0.708685
H      3.853530   -1.215177    1.030230
H      1.887304    1.764186    1.659590
H      2.486608    2.581815    0.208959
H      3.643631    1.906851    1.432019
H     -3.599644    1.591192   -1.122306
H     -2.453197    0.474663   -1.931181
H     -2.031007    2.216285   -1.671160
H     -0.411709    0.894004    2.147729
H     -1.091264   -0.765206    1.996270
H      0.654765   -0.514524    1.606064
H      1.933412   -1.035885   -2.209384
H      2.250896   -1.917799   -0.697487
H      0.213711   -2.877631   -0.955426
H     -0.156449   -1.870639   -2.374993
H     -2.954092    0.330120    1.977739
H     -4.056388    0.657274    0.626678
H     -2.191927   -2.802668   -0.712829
H      0.179823    1.226869   -1.559946
H      0.581768    1.867374    0.087901
H     -1.812044    1.901589    0.694487
