46

C      6.211474   -2.568133   -1.645433
C     -6.368860   -1.216425    1.290539
C      1.426366   -0.827331    0.589167
C      4.303286   -0.822901    1.757909
C     -5.135408   -0.821311    0.695984
C      2.057414    0.489212    0.428893
C      5.822537   -1.762602   -0.600519
C     -5.107837    0.502220   -0.016801
C     -1.675410    1.099774   -1.386554
C      1.481139    1.565645   -0.126525
C     -3.935175    1.042686   -0.666108
C     -1.053427    2.278083   -0.766967
C     -0.369924    0.359217   -1.339897
C      2.224610    2.808995   -0.219702
C     -4.181231   -2.787865    1.436114
N     -3.320764   -3.678351    1.636666
N      7.221443   -1.923066   -2.242831
N     -4.123138   -1.609378    0.795426
N     -2.776597    0.498183   -0.726267
N      6.586121   -0.660815   -0.577515
N     -6.192508    1.209304   -0.061947
N      7.441277   -0.788827   -1.604422
N      0.153797    1.545957   -0.634089
O     -4.037105    2.288445   -1.307193
O     -1.439832    3.461759   -0.473081
O      1.706792    3.819693   -0.728516
O      3.517193    2.891319    0.254053
O     -6.243024    2.427762   -0.694930
S     -0.216520   -0.973145   -0.147909
S     -5.899251   -2.816610    1.988788
S      3.722118    0.709103    1.018779
S      4.507605   -2.136708    0.543376
H      5.789280   -3.521291   -1.924276
H     -7.310789   -0.736023    1.331909
H      1.433916   -1.174165    1.652046
H      2.106901   -1.570177    0.071594
H      3.631606   -1.162617    2.581179
H      5.307965   -0.634309    2.205722
H     -1.896295    1.326838   -2.474884
H      0.130057    0.166770   -2.306551
H     -3.570752   -4.522390    2.160717
H     -3.127981   -1.373973    0.358707
H      6.544672    0.147413    0.093392
H     -3.451551    2.556163   -2.090862
H      4.189115    3.599041   -0.020287
H     -6.083304    3.294832   -0.198690
