40

C      4.549723   -1.705298   -1.072008
C     -3.418510    3.494567    0.014858
C     -3.882080   -2.372699   -0.790096
C     -2.318003    3.775091    0.791661
C     -2.860899   -3.022412   -0.144869
C     -3.742197    2.197273   -0.313492
C     -3.989280   -1.006187   -0.748857
C     -1.517576    2.764114    1.256781
C     -1.946613   -2.270129    0.544823
C      0.263655    0.134982    0.952458
C      4.224435   -0.547015   -0.158382
C     -2.937749    1.157340    0.151994
C     -3.038755   -0.290253   -0.037440
C     -1.844354    1.436461    0.923862
C     -1.995857   -0.872331    0.628415
C     -1.202076    0.153017    1.259092
C      4.748376    0.719179   -0.703601
C      2.254914   -1.248163    1.036000
N      2.833658   -0.482946    0.183356
O      5.949007    0.798182   -1.042405
O      3.937752    1.822991   -0.848361
O      2.976832   -2.205877    1.687630
O      0.901490   -1.059335    1.255381
H      3.691712   -2.397216   -1.199509
H      4.736453   -1.274178   -2.083662
H      5.469270   -2.212099   -0.756789
H     -4.036313    4.284998   -0.343022
H     -4.595007   -2.994258   -1.330627
H     -2.035036    4.798903    1.069602
H     -2.788896   -4.108315   -0.186733
H     -4.618190    1.967112   -0.932384
H     -4.812494   -0.506154   -1.270971
H     -0.635609    2.938083    1.875106
H     -1.130096   -2.744308    1.064764
H      0.735208    0.938492    1.575739
H      0.489194    0.400896   -0.099378
H      4.782380   -0.739791    0.805218
H     -1.352274    0.038717    2.378329
H      4.221218    2.699193   -1.274738
H      3.932587   -2.460626    1.490774
