96

C     -2.839050    0.786952   -2.128982
C      2.423121    0.580819    1.958856
C     -8.003365    0.660171   -1.980278
C      7.612001   -0.886715   -1.729941
C    -10.944881   -2.566326   -0.284820
C     11.917717   -1.889139   -2.055004
C    -12.005522    1.942728    1.691360
C    -12.901225    1.385495   -0.569472
C     11.240415    0.281988    2.377789
C     12.432104    1.477975    0.631241
C     -0.553306    0.658872   -0.456186
C      0.521513    0.622659    0.348994
C     -5.420847    0.607988   -0.691828
C      5.360316    0.083333   -0.173525
C    -14.264151   -0.907091    0.552829
C     14.405326   -0.660547    0.629450
C     -1.880001    0.689942    0.086535
C      1.854487    0.575265   -0.162432
C     -4.272037    0.578766   -0.043802
C      4.340284    0.499801    0.636032
C     -6.660758    0.424373    0.040206
C      6.712665    0.053954    0.297460
C    -13.210542   -1.840625    0.120941
C     13.890131   -1.332415   -0.595924
C     -9.017032    0.125277    0.296417
C      9.119131   -0.233171    0.223531
C    -10.229330    0.096509   -0.163359
C     10.149989   -0.698266   -0.415305
C    -13.682190    0.167481    1.405492
C     13.368726   -0.575453    1.691212
C     -2.949816    0.737862   -0.670379
C      3.014114    0.539342    0.207519
C     -7.847242    0.438692   -0.524797
C      7.760219   -0.366514   -0.361309
C    -11.935113   -1.523015    0.184164
C     12.439417   -1.236753   -0.799458
C    -11.418956   -0.231306    0.680981
C     11.554134   -0.637456    0.022492
C    -12.455046    0.817740    0.743483
C     12.085826    0.074245    1.174302
H     -1.943041    1.440783   -2.360043
H     -2.612724   -0.190459   -2.599325
H     -3.678705    1.324359   -2.633019
H      3.371316    0.440195    2.425827
H      2.087555    1.549597    1.872766
H      1.911148   -0.337668    1.862601
H     -8.941984    1.267732   -2.163645
H     -8.018122   -0.261608   -2.548659
H     -7.201772    1.324721   -2.405194
H      8.062499   -1.932573   -1.790407
H      8.201988   -0.240652   -2.439930
H      6.576595   -1.035789   -2.071505
H    -10.778265   -2.411211   -1.357621
H    -10.059347   -2.536499    0.344234
H    -11.413830   -3.587511   -0.168241
H     11.223291   -2.699964   -1.812535
H     12.762138   -2.281788   -2.653760
H     11.471484   -1.074962   -2.671043
H    -12.015812    1.548098    2.755463
H    -12.661980    2.812801    1.677056
H    -10.979206    2.270466    1.420058
H    -13.613650    2.251800   -0.427838
H    -12.058416    1.784456   -1.169107
H    -13.499199    0.630760   -1.163366
H     10.724277    1.265073    2.451955
H     10.652781   -0.583637    2.706368
H     11.986979    0.388918    3.265545
H     12.850886    1.380028   -0.416260
H     13.173187    1.901231    1.317811
H     11.538437    2.106069    0.531764
H     -0.388396    0.662762   -1.513295
H      0.263252    0.649685    1.400501
H     -5.392990    0.767768   -1.769361
H      5.060436   -0.195834   -1.157412
H    -14.950400   -1.496896    1.237041
H    -14.876086   -0.525750   -0.283796
H     15.299493   -1.223559    1.026686
H     14.765487    0.369123    0.357631
H     -2.036848    0.673817    1.174097
H      1.864025    0.590408   -1.340530
H     -4.323168    0.420947    1.050006
H      4.691843    0.807538    1.595260
H     -6.626211    0.274704    1.117356
H      6.918866    0.418307    1.323366
H    -13.541553   -2.828368   -0.261473
H     14.150950   -2.426711   -0.576087
H     14.375533   -0.931510   -1.526433
H     -8.878554   -0.098811    1.348383
H      9.227334    0.250737    1.171770
H    -10.423235    0.307845   -1.194782
H      9.904682   -1.183772   -1.387576
H    -13.307679   -0.264764    2.364487
H    -14.410202    0.983468    1.618540
H     13.110787   -1.554268    2.097980
H     13.687282    0.062704    2.554086
H    -10.994386   -0.345772    1.718680
