46

C     -3.845039    0.616201   -2.204518
C     -3.398341   -0.297527    2.592490
C     -4.218233    1.038514   -0.833132
C     -4.037143    0.259406    1.510493
C     -2.602936   -0.184993   -2.337024
C     -2.107363   -0.720480    2.383535
C      3.409757    1.213902   -1.047084
C      2.649398    0.907685    1.268248
C      4.496272    0.231842   -0.616388
C      3.678641   -0.167826    1.569642
C     -0.496275   -0.945698   -1.461718
C      2.839776   -1.475221   -0.148514
C      2.201388    0.867936   -0.168890
C     -3.456856    0.407634    0.261387
C     -1.542389    0.124121   -1.282911
C     -1.490289   -0.588230    1.141852
C      1.799748   -0.536898   -0.610216
C     -2.154642   -0.023918    0.062841
C     -0.112750   -1.022706    0.948964
N      4.038937   -0.770014    0.288668
N      0.447192   -0.832211   -0.337650
O      0.584859   -1.543963    1.838956
H     -4.675553   -0.011590   -2.646412
H     -3.785515    1.486296   -2.913628
H     -3.922489   -0.374771    3.526234
H     -5.323038    0.874584   -0.683041
H     -4.120254    2.158335   -0.792606
H     -5.058813    0.606480    1.635004
H     -2.824357   -1.280792   -2.221865
H     -2.119560    0.021470   -3.315106
H     -1.563532   -1.163121    3.198656
H      3.711104    2.259703   -0.916219
H      3.115432    0.956807   -2.088798
H      3.135148    1.916282    1.394053
H      1.796882    0.845139    1.964667
H      4.980425   -0.234052   -1.504877
H      5.255510    0.840304   -0.087763
H      3.241215   -0.971638    2.191543
H      4.552009    0.300537    2.056286
H     -1.017398   -1.923098   -1.475480
H      0.036502   -0.866035   -2.426330
H      3.193192   -2.141044   -0.980391
H      2.551199   -2.105963    0.743492
H      1.391845    1.593825   -0.288120
H     -1.126247    1.144635   -1.418930
H      1.892581   -0.489850   -1.752613
