30

C      0.405472   -0.074643   -0.547494
C     -0.915772    0.198403    0.141285
C      1.524827   -0.209141    0.451546
C     -1.958672    0.315903   -0.918186
C      2.811419   -0.478443   -0.275097
C     -3.340366    0.590202   -0.382275
C     -3.830064   -0.451992    0.520385
N     -3.434265    1.911133    0.181838
O     -4.274834   -0.161310    1.658172
O     -3.820984   -1.788457    0.155246
O      5.473120   -1.431219    0.340835
O      4.536600    0.930279    1.471255
O      3.547856   -1.381186    2.151479
P      4.120977   -0.631065    0.970412
H      0.571598    0.736609   -1.269465
H      0.281944   -1.013927   -1.131722
H     -1.118220   -0.640395    0.849464
H     -0.782892    1.103682    0.757423
H      1.312581   -1.076278    1.097927
H      1.633856    0.733663    0.999037
H     -1.944377   -0.596462   -1.527063
H     -1.673658    1.154237   -1.586098
H      3.076497    0.396707   -0.935987
H      2.781306   -1.408890   -0.881179
H     -4.023091    0.587568   -1.282974
H     -4.124631    2.017913    0.929546
H     -2.542884    2.400216    0.297163
H     -4.367366   -2.500872    0.639672
H      5.817374   -0.849985   -0.396688
H      4.256649    1.617752    0.819015
