42

C      6.387250    0.331394   -1.788138
C     -0.638354    0.158984    3.759803
C     -1.928585   -0.324871    3.805192
C     -3.584702   -1.248084   -1.793581
C     -0.144792    0.536793    2.515817
C     -2.689689   -0.423324    2.641887
C     -3.061916   -1.526236   -0.386334
C      2.076732    1.519265    0.402427
C      1.647871   -0.620485   -0.490971
C      3.435708    1.291356    0.346780
C      3.019405   -0.851724   -0.547647
C     -3.288116    0.218682   -2.015832
C     -1.083603    0.358212   -1.100970
C      1.141478    0.568832   -0.015358
C      3.929649    0.095735   -0.131799
C     -0.899420    0.438019    1.369808
C     -2.191505   -0.046605    1.415685
C     -0.299750    0.864548    0.066491
C     -3.001302   -0.154771    0.199621
N     -2.488827    0.651176   -0.890448
S      5.689903   -0.199994   -0.204156
H      7.322393    0.889705   -1.574305
H      5.719920    0.994088   -2.346637
H      6.697173   -0.575902   -2.363703
H     -0.050730    0.233968    4.664517
H     -2.314932   -0.619549    4.772204
H     -4.685068   -1.441555   -1.754185
H     -3.092888   -1.888623   -2.545783
H      0.864462    0.912445    2.498403
H     -3.699919   -0.803950    2.688755
H     -3.781978   -2.159594    0.182801
H     -2.108544   -2.070774   -0.392608
H      1.719940    2.478283    0.787405
H      0.956064   -1.401376   -0.831708
H      4.167996    2.026442    0.670142
H      3.402967   -1.783888   -0.920808
H     -4.244743    0.791812   -1.998602
H     -2.763327    0.387952   -2.984435
H     -0.773225    0.928376   -2.003631
H     -0.897132   -0.703568   -1.300577
H     -0.402200    1.989513    0.052277
H     -4.063662    0.179293    0.362720
