32

C      0.303507   -2.481945   -0.482134
C      3.452091    1.433261   -0.267194
C     -3.513197    0.881989   -0.731329
C      3.397622    0.316605   -1.062066
C     -2.991777    0.166567   -1.791342
C      2.454341    1.721775    0.619989
C     -2.879595    0.928490    0.486282
C      2.279380   -0.512948   -0.926279
C     -1.805107   -0.509454   -1.598004
C      0.255995    1.199551    1.711570
C      1.346371    0.881447    0.740795
C     -1.684591    0.238708    0.655595
C      1.277123   -0.234797   -0.043749
C     -1.159670   -0.475368   -0.393354
C     -0.752851    0.083151    1.799845
C      0.107734   -1.106335    0.097015
N     -0.136010   -1.187551    1.549383
H      1.120322   -2.973736    0.067657
H      0.482119   -2.382852   -1.554216
H     -0.651089   -3.039351   -0.305917
H      4.325221    2.085948   -0.369491
H     -4.444398    1.414938   -0.875775
H      4.199327    0.110270   -1.755980
H     -3.520399    0.149684   -2.747883
H      2.520284    2.605180    1.233421
H     -3.274533    1.488527    1.338902
H      2.266020   -1.393373   -1.572924
H     -1.376885   -1.082247   -2.428089
H     -0.237873    2.130885    1.308387
H      0.633676    1.435730    2.712917
H     -1.298825    0.106414    2.773538
H     -0.694330   -1.999164    1.810430
