38

C     -4.238569   -0.683681   -0.032655
C     -3.655012    1.569836    0.081578
C      1.512276   -3.348462    0.693911
C      1.241023   -3.748349   -0.587175
C      1.221642   -2.036412    1.047544
C      2.545375    1.143327    1.380868
C      1.819603    1.774323   -0.792332
C      3.680054    1.904026    1.236732
C      2.959677    2.534286   -0.928330
C     -0.832512    0.785270   -0.099406
C      0.695018   -2.846200   -1.472779
C     -1.977954   -0.153464    0.216548
C      1.597876    1.074055    0.354021
C      3.898966    2.609315    0.076737
C      0.395805    0.223853    0.596564
C      0.674498   -1.163275    0.129450
Br     5.437499    3.685869   -0.210110
N      0.417896   -1.566987   -1.107656
N     -3.200852    0.277886   -0.392168
H     -4.523017   -0.484742    1.031073
H     -3.859106   -1.704410   -0.177223
H     -5.140764   -0.450343   -0.634204
H     -4.717599    1.668203   -0.283083
H     -3.055354    2.403208   -0.299415
H     -3.733853    1.539428    1.189787
H      1.943502   -4.047976    1.406194
H      1.458255   -4.771383   -0.893485
H      1.431638   -1.712655    2.053349
H      2.394240    0.591804    2.312656
H      1.067977    1.708552   -1.584989
H      4.404850    1.955157    2.025997
H      3.110889    3.080024   -1.848284
H     -0.702975    0.772385   -1.199367
H     -1.037772    1.769759    0.324407
H      0.482948   -3.158547   -2.474070
H     -2.127253   -0.232855    1.314982
H     -1.730081   -1.146340   -0.162000
H      0.141165    0.185514    1.679846
