73

C     -5.407978    2.669570   -2.235889
C     -3.019965   -0.560166    3.768467
C     -6.711901    2.045137    2.250102
C      0.297307    0.509437   -1.322507
C     -3.810664    0.714159   -0.931418
C     -3.015545   -0.357103    0.988679
C     -0.933834   -2.550622    0.503588
C      4.783015   -0.342949    2.296955
C     -0.637724    1.141042   -3.590595
C      1.541936   -3.502272    2.913519
C     -3.002286   -0.268030   -0.384817
C     -0.930868    0.742183   -2.138532
C     -0.933668   -1.464039   -0.340629
C      0.202815   -0.686465   -0.421568
C     -4.596951    1.573817   -0.193972
C     -3.808615    0.507622    1.761848
C      0.171864   -2.838938    1.237539
C      5.337239   -0.551068    0.909598
C     -2.161814   -1.165444   -1.157194
C     -1.577977   -0.596687   -2.402162
C      5.707976    0.809494    0.365898
C      5.517125    0.731940   -1.133079
C      4.030930    0.551207   -1.365634
C      1.326187   -0.978605    0.323885
C     -4.596198    1.469142    1.177323
C      1.303527   -2.095901    1.182236
C     -2.395682   -0.379811   -3.553449
C      3.550931   -0.611795   -0.575701
O      5.670305    0.446458    3.057001
O      7.077915    1.086165    0.557612
O      5.933416    1.892938   -1.752883
O      3.807872    0.403736   -2.756845
O     -3.391108   -1.053118   -3.963958
O     -5.393616    2.548685   -0.829580
O     -3.822849    0.419740    3.147782
O     -5.392153    2.340755    1.910858
O     -1.887484    0.768222   -4.194806
O      0.422097   -3.864276    2.149063
O      2.245611   -2.639493    2.039871
O      4.570251   -1.296183    0.080979
O      2.506923   -0.266803    0.313244
H     -5.905790    3.620983   -2.492082
H     -4.357962    2.746786   -2.582654
H     -5.930183    1.818982   -2.723046
H     -3.311806   -1.544369    3.345719
H     -1.948453   -0.341095    3.589300
H     -3.157263   -0.547206    4.867347
H     -6.726018    1.077695    2.819799
H     -7.414383    2.018137    1.417696
H     -7.069359    2.851518    2.946775
H      0.391866    1.383722   -0.612994
H      1.217983    0.498180   -1.912870
H     -3.830606    0.803141   -1.988560
H     -2.441225   -1.070521    1.559150
H     -1.830747   -3.191577    0.587617
H      4.667234   -1.295027    2.868028
H      3.781942    0.110927    2.231896
H     -0.442108    2.204154   -3.694452
H      0.135710    0.468154   -3.960658
H      2.182062   -4.408374    3.098765
H      1.290712   -2.974546    3.854407
H     -1.596551    1.509242   -1.737228
H      6.317360   -1.095177    1.047020
H     -2.672519   -2.106942   -1.392823
H     -0.734387   -1.285397   -2.705199
H      5.125588    1.631830    0.784000
H      6.031356   -0.170709   -1.542015
H      3.528302    1.453280   -0.988952
H      3.139046   -1.365628   -1.279069
H      5.917071    0.024734    3.912012
H      7.623475    0.268429    0.414083
H      5.346684    2.128813   -2.503617
H      4.096606   -0.523825   -2.995752
