57

C     -1.672594    0.928104    1.473921
C      1.318063    1.586413   -0.830118
C      7.556898   -1.091257    0.268629
C      7.333415    0.388182    0.471217
C      6.556613   -1.702896   -0.678808
C     -6.919390    1.054635   -0.551596
C      5.917756    0.790900    0.113430
C      5.130812   -1.477444   -0.262673
C     -7.198256   -0.074563    0.395778
C     -5.421907    0.943869   -0.849820
C     -2.135652    0.960182   -1.013198
C     -2.670900    0.996756    0.376570
C      1.311618    0.200616   -0.220751
C      4.949798   -0.268838    0.601011
C     -6.046227   -1.048462    0.070008
C      3.576087    0.237980    0.532760
C     -3.672603   -0.121132    0.605715
C     -6.046216   -2.156598    1.014741
C      0.417246   -0.678367   -0.992306
N      2.675675   -0.326454   -0.170308
N     -4.945836   -0.150616    0.036405
O      3.253942    1.368616    1.259645
O     -3.270044   -1.049408    1.362850
O     -5.217218   -2.421884    1.907091
O     -7.133667   -3.065283    0.915900
O      0.937958   -1.782109   -1.306990
S     -1.211811   -0.434703   -1.529127
H     -0.898340    1.715201    1.435443
H     -2.236119    1.149633    2.431502
H     -1.277084   -0.097283    1.639776
H      0.706563    2.266344   -0.235419
H      0.999079    1.509739   -1.889997
H      2.345358    2.010903   -0.855340
H      7.616265   -1.661618    1.204160
H      8.558939   -1.184601   -0.239223
H      8.075853    1.017757   -0.056800
H      7.456881    0.597693    1.554209
H      6.748429   -1.376651   -1.720227
H      6.740330   -2.806144   -0.658890
H     -7.184852    2.049017   -0.167524
H     -7.499132    0.835284   -1.490386
H      5.647882    1.749073    0.601961
H      5.806289    0.882325   -0.980652
H      4.533317   -1.302990   -1.196860
H      4.680800   -2.347176    0.264642
H     -7.006108    0.295509    1.430477
H     -8.174030   -0.544876    0.280203
H     -4.928012    1.896726   -0.615095
H     -5.293453    0.653316   -1.906958
H     -1.582642    1.952575   -1.184992
H     -3.007698    1.085151   -1.723583
H     -3.254311    1.955723    0.510949
H      0.923949    0.290109    0.809749
H      5.181222   -0.466560    1.672709
H     -6.284064   -1.380403   -0.977242
H      2.322466    1.598291    1.509291
H     -7.091337   -3.948305    1.381612
