29

C     -1.921390    0.665156    0.564604
C     -0.971298    0.650363   -1.668340
C      0.890322    1.897174    0.437787
C     -0.359856   -1.528773    1.262598
C      0.369054   -0.236807    1.663179
C      0.667431   -1.577523   -0.912286
C     -0.649239   -1.358630   -0.192159
C      1.499566   -0.365821   -0.476586
C     -0.782013    0.167815   -0.294600
C      0.566261    0.476874    0.315595
O      2.038082    0.228694   -1.585009
H     -2.809474    0.973873   -0.051719
H     -1.644312    1.565967    1.156681
H     -2.299133   -0.093582    1.268029
H     -1.529987   -0.104198   -2.295411
H     -1.655147    1.549708   -1.671863
H     -0.093488    0.931244   -2.235181
H      0.569775    2.438489   -0.474297
H      1.959942    2.039753    0.602009
H      0.334702    2.344351    1.281103
H     -1.224474   -1.729509    1.891493
H      0.352752   -2.383897    1.398709
H     -0.241003    0.354019    2.351581
H      1.330713   -0.489020    2.132663
H      0.567708   -1.619409   -2.000389
H      1.129028   -2.471659   -0.458795
H     -1.483672   -1.893496   -0.590796
H      2.360950   -0.693365    0.171747
H      3.028202    0.262208   -1.590351
