23

C      2.409799   -0.165818    0.343838
C     -0.665403    1.547293   -0.498341
C     -1.613050    0.684398    0.343273
C      1.037139   -0.013697   -0.327517
C     -1.288837   -0.758299   -0.073999
C      0.122946   -0.991670    0.416475
O      3.336099    0.712450   -0.186001
O     -2.930424    0.998996    0.138418
O     -1.363324   -0.783441   -1.461381
O      0.555615   -2.281358    0.263644
O      0.636891    1.287889   -0.102306
H      2.735940   -1.226070    0.279537
H      2.253411    0.075096    1.409201
H     -0.891639    2.594697   -0.226000
H     -0.860071    1.357689   -1.553679
H     -1.265373    0.796071    1.386291
H      1.134423   -0.289255   -1.377876
H     -1.985261   -1.470477    0.410302
H      0.169793   -0.664194    1.492072
H      3.425834    0.678409   -1.153050
H     -3.325314    1.217756    1.031322
H     -2.299718   -0.540288   -1.696573
H      0.670525   -2.766175    1.142350
