15

C      0.868251    0.484521   -0.429695
C     -0.584518    0.714091   -0.051759
C      1.351770   -0.736131    0.253499
C     -1.447905   -0.417618   -0.447863
O     -0.624445    0.892211    1.328618
O      0.996487   -1.850024   -0.223326
O      2.158781   -0.678813    1.367490
O     -1.838348   -1.213710    0.434877
O     -1.818888   -0.593582   -1.776643
Na     0.000000    0.000000    0.000000
Na     0.000000    0.000000    0.000000
H      1.439358    1.366422   -0.120638
H      0.936442    0.379873   -1.534189
H     -0.920968    1.657274   -0.532106
H     -0.516016   -0.004515    1.731735
