50

C      5.076765   -0.219938   -0.405618
C     -2.171936   -2.437423   -1.267709
C      3.939036    0.490652    0.292941
C     -4.659444    2.108803   -0.497928
C     -5.289446    0.923149   -0.855073
C     -3.338277    2.195352   -0.183425
C     -4.532589   -0.229323   -0.892216
C      0.744642   -0.869856    1.787999
C     -0.467474    0.779060   -1.335776
C      2.857547   -0.469321    0.713792
C      1.715630    0.255096    1.415836
C     -2.567172    1.043707   -0.217487
C     -3.171947   -0.148091   -0.569421
C      0.103905   -1.308298    0.459521
C      0.938806    0.461799   -0.872577
C      1.071512    1.193306    0.445109
C     -1.237148   -0.711825    0.438525
C     -0.349886    1.596911    0.847890
C      2.338063   -1.331051   -0.396595
C     -1.173691    0.718808    0.025194
N     -2.184349   -1.208690   -0.527257
N      0.964120   -0.979154   -0.633445
O     -0.529386    2.917485    0.480683
O      2.477118   -2.692895   -0.127026
H      5.404701   -1.082623    0.226357
H      5.912795    0.524198   -0.466576
H      4.830341   -0.520919   -1.426667
H     -2.780143   -2.377184   -2.190787
H     -2.544296   -3.240961   -0.573858
H     -1.121382   -2.750287   -1.510405
H      3.588909    1.295114   -0.367560
H      4.383322    0.907743    1.243630
H     -5.255199    3.014418   -0.468748
H     -6.335506    0.921644   -1.092172
H     -2.827404    3.106277    0.097034
H     -4.996774   -1.182012   -1.171065
H      0.017250   -0.457039    2.487659
H      1.263712   -1.704374    2.278652
H     -0.871511    0.050613   -2.042506
H     -0.512265    1.829426   -1.675262
H      3.288772   -1.154665    1.483333
H      2.116601    0.762315    2.303781
H      0.031685   -2.433426    0.497576
H      1.626982    0.783490   -1.642801
H      1.696352    2.101219    0.370053
H     -1.712173   -0.845271    1.433332
H     -0.500841    1.529670    1.937944
H      2.890394   -1.146530   -1.344643
H      0.101652    3.178478   -0.248527
H      1.749627   -3.187579   -0.607774
