45

C     -5.039617   -1.339536   -0.277461
C     -4.110747   -0.550131   -0.769821
C      1.658847   -2.989383    0.369356
C      2.890125   -3.020693   -0.311792
C      1.091699    2.999827    1.213051
C      0.582309    1.676626    1.832707
C      0.153411    0.556594   -1.597787
C     -3.071904   -0.021054    0.103456
C     -1.283937    0.217669   -1.401329
C     -0.313013   -1.588532    1.185276
C      0.936424   -1.827281    0.459270
C      3.382604   -1.859016   -0.898955
C      1.861008    2.699442   -0.078059
C     -0.926596   -0.233309    0.966336
C      1.495158   -0.754555   -0.147424
C      2.680773   -0.666685   -0.827068
C      2.126194    1.347373   -0.226125
C      0.854573    0.561720   -0.307215
C     -0.084636    0.939001    0.752768
N     -1.738521   -0.363508   -0.232952
O      4.590842   -1.859182   -1.573439
O      2.108009    3.673731   -0.746829
O     -0.993835    1.920052    0.226711
O      2.827125    0.688367   -1.255546
H     -5.844406   -1.772505   -0.859223
H     -5.025049   -1.598035    0.795888
H     -4.145041   -0.314668   -1.811860
H      1.238447   -3.873583    0.842902
H      3.428602   -3.945735   -0.365076
H      1.858480    3.366481    1.928075
H      0.304791    3.722673    1.064674
H     -0.179389    2.003283    2.576324
H      1.370223    1.162568    2.376216
H      0.281055    1.534942   -2.164813
H      0.692180   -0.158800   -2.290222
H     -3.204219    1.102767    0.129788
H     -3.231781   -0.312081    1.185781
H     -1.522660   -0.522888   -2.237313
H     -1.884993    1.113291   -1.761859
H     -0.228725   -1.827146    2.274033
H     -1.059131   -2.350876    0.812755
H     -1.570270   -0.042800    1.875179
H      2.645517    0.988466    0.714200
H      4.963118   -1.026404   -2.004333
H     -0.563045    2.543510   -0.370317
