32

C      3.596625    0.130942    0.644732
C     -2.445099   -0.802644    0.171424
C     -2.755815    1.323037   -0.685598
C     -1.669216    0.994652    1.422599
C      0.788319   -0.522932    1.082047
C     -0.631960    0.368460   -0.669109
C      2.623403   -0.484843   -0.321471
C      0.680172    0.569498    0.043119
C      1.711790   -1.488967    0.351355
N     -1.811892    0.503007    0.095864
O      0.980088   -2.126564   -0.616572
O      1.733024    0.395543   -0.858716
H      4.495807   -0.520163    0.694128
H      3.902645    1.107900    0.232277
H      3.201229    0.294238    1.646842
H     -1.813691   -1.595026   -0.280796
H     -2.551186   -1.069697    1.237547
H     -3.474323   -0.807773   -0.253183
H     -3.187757    0.708309   -1.502072
H     -2.204573    2.158318   -1.150357
H     -3.579064    1.678947   -0.058335
H     -2.064096    0.249465    2.146890
H     -0.686824    1.328241    1.741064
H     -2.320107    1.920585    1.502430
H     -0.165506   -0.979353    1.347502
H      1.243938   -0.159309    2.025046
H     -0.660641   -0.584100   -1.239819
H     -0.644844    1.154498   -1.484110
H      3.221617   -0.975980   -1.117791
H      0.815145    1.576340    0.437345
H      2.242618   -2.156841    1.041860
H      1.430172   -2.187789   -1.493313
