49

C     -2.501813    2.692934   -0.824320
C      4.311497    3.163155    0.581980
C     -2.081626    1.257380   -0.841337
C      3.948792   -2.807868   -1.229193
C      4.422209   -1.533674   -1.053777
C     -3.700724    0.333057    1.143340
C      2.635730   -3.125766   -0.973634
C      3.525481   -0.547596   -0.601193
C     -0.624102   -3.165987   -0.177164
C     -2.542146    1.197745    1.560563
C     -3.411193   -1.078306    0.824212
C     -1.972935   -2.583953   -0.401590
C     -0.260932    1.747019    0.660877
C      1.790766   -2.143497   -0.534490
C      0.442878   -2.142782   -0.212505
C      2.214859   -0.822844   -0.334401
C      0.978193    1.312327    0.368680
C      0.124263   -0.867239    0.156135
C     -1.186946   -0.526230    0.643058
C      2.093707    2.223799    0.526862
C     -1.442888    0.927502    0.524276
N     -2.218723   -1.268173   -0.004654
N      1.189119   -0.059620    0.085965
O      1.732017    3.409214    0.927547
O      3.421103    2.101367    0.350314
H     -2.029282    3.237754    0.014538
H     -2.255264    3.221514   -1.780840
H     -3.598197    2.839517   -0.699182
H      3.834868    4.128401    0.283301
H      4.630797    3.266768    1.626666
H      5.230693    3.055544   -0.044869
H     -1.237580    1.170561   -1.576143
H     -2.855757    0.531026   -1.076776
H      4.654626   -3.537061   -1.573914
H      5.463060   -1.269124   -1.253796
H     -4.399645    0.330068    2.033210
H     -4.298479    0.790563    0.326542
H      2.304220   -4.128288   -1.122476
H      3.922423    0.417647   -0.509244
H     -0.442861   -3.988200   -0.901718
H     -0.656169   -3.661594    0.838500
H     -2.864953    2.236258    1.571846
H     -2.181352    0.833214    2.534643
H     -4.256814   -1.466527    0.199533
H     -3.263441   -1.729797    1.709325
H     -2.739739   -3.244568    0.111695
H     -2.204803   -2.751620   -1.501743
H     -0.338162    2.800374    1.028596
H     -1.304775   -0.774396    1.753229
