57

C      6.868805    1.111906   -0.078152
C      6.268484    0.611799    1.057424
C      6.246764    0.897617   -1.305254
C     -3.381580   -1.697052   -2.034813
C     -3.259311   -2.573638   -0.827083
C      5.093906   -0.078203    0.998474
C      5.059556    0.203906   -1.395465
C     -2.474542   -0.467782   -1.882243
C     -1.980257    2.952426    0.456015
C     -3.082643    3.295617    1.203082
C      3.205644   -1.040073   -0.257816
C     -3.187283   -1.762267    0.467145
C     -0.977640   -1.176309    1.490036
C      2.089605   -0.015554   -0.109975
C      0.387423   -1.382118    0.930960
C     -0.429217    1.411205   -0.594022
C     -3.512641    0.967407    1.488387
C      4.493114   -0.280281   -0.225175
C     -1.644360    1.610635    0.225333
C     -3.856420    2.282905    1.724305
C     -1.412556   -0.864048   -0.895875
C     -2.414624    0.598402    0.743971
C     -0.166374   -0.007150   -0.976261
C     -2.032270   -0.796370    0.482641
N      0.800462   -0.580546   -0.122692
O     -4.980096    2.572202    2.485269
Cl     0.690452    0.000000    0.000000
H      7.799076    1.654818   -0.004464
H      6.729927    0.760618    2.043028
H      6.746834    1.303957   -2.166520
H     -3.019952   -2.231957   -2.934500
H     -4.419261   -1.373272   -2.183045
H     -2.489710   -3.345603   -0.888697
H     -4.238927   -3.132394   -0.747509
H      4.645284   -0.458790    1.903048
H      4.575557    0.035263   -2.340801
H     -2.093349   -0.108218   -2.838583
H     -3.111030    0.311585   -1.405569
H     -1.390893    3.765693    0.059075
H     -3.366942    4.326141    1.399046
H      3.098075   -1.468245   -1.289301
H      3.170726   -1.828028    0.504502
H     -3.024986   -2.511360    1.273829
H     -4.171367   -1.327311    0.599978
H     -0.933832   -0.435189    2.332158
H     -1.325997   -2.126847    1.977569
H      2.189042    0.652188   -1.014992
H      2.290781    0.628095    0.755747
H      0.483150   -2.478564    0.669298
H      1.108877   -1.254323    1.794216
H     -0.434023    2.091577   -1.485401
H      0.444246    1.775367    0.019493
H     -4.148230    0.205890    1.919212
H     -1.079248   -1.897701   -1.145165
H      0.135042   -0.011805   -2.061895
H     -5.890818    2.683781    2.062612
H     -0.690452    0.000000    0.000000
