44

C      3.910660   -0.132287   -2.919448
C     -0.396679   -2.057960    2.287309
C     -1.640285   -2.218951    1.450677
C      0.288878   -0.732802    2.018027
C     -0.970957    2.914981    0.732886
C     -2.324464    3.035381    0.962445
C     -1.475899   -1.870305    0.027025
C     -0.252066   -0.531138   -1.677475
C      1.193438   -0.774403   -1.994377
C      1.033318    1.680454    0.122976
C     -2.599697    0.756263    0.420010
C      3.387513    0.234135   -1.572198
C     -0.422440    1.691545    0.339464
C     -3.155380    1.959190    0.809258
C      0.657790   -0.761891    0.560525
C     -1.263570    0.609035    0.186108
C      1.646860    0.308077    0.177911
C     -0.621671   -0.664762   -0.234839
N      2.095785   -0.071038   -1.132311
O      4.207296    0.861621   -0.816380
O     -4.535399    2.013627    1.025862
H      3.979415    0.798241   -3.508900
H      4.929931   -0.560167   -2.793824
H      3.305995   -0.923696   -3.405784
H      0.310508   -2.854823    1.976885
H     -0.691127   -2.149893    3.352340
H     -2.462088   -1.685332    1.976060
H     -1.920309   -3.308507    1.514585
H      1.196556   -0.661150    2.614609
H     -0.455078    0.073747    2.246995
H     -0.347899    3.795924    0.866664
H     -2.766689    3.970870    1.266618
H     -2.448809   -1.797391   -0.472290
H     -0.947466   -2.732112   -0.478040
H     -0.497098    0.491410   -2.091465
H     -0.845729   -1.230461   -2.315152
H      1.368594   -0.407723   -3.029095
H      1.412008   -1.861553   -2.014694
H      1.499950    2.357289    0.867761
H      1.219742    2.154371   -0.877312
H     -3.247270   -0.098237    0.296845
H      1.113051   -1.750560    0.347499
H      2.437734    0.313914    0.937573
H     -4.906951    1.817070    1.948666
