61

C     -2.675253   -2.149526   -1.541900
C      5.901968    0.468898    0.346377
C     -3.565339   -1.834688   -0.376587
C      5.569136    1.516132    1.164248
C      5.108068   -0.654156    0.343649
C     -1.661852   -1.040497   -1.816338
C     -1.444416    2.985486   -1.122692
C     -2.740871    3.455007   -1.085190
C      3.148394   -1.857996    1.182434
C     -2.863234   -1.261103    0.806788
C     -0.836940   -0.094575    1.675742
C      4.453252    1.473903    1.989149
C      2.060831   -1.702344    0.120506
C      0.483161   -0.795132    1.610020
C      0.272630    1.310739   -0.684174
C     -3.421368    1.467665   -0.023080
C     -1.141110    1.745203   -0.603848
C      4.008943   -0.647631    1.182222
C     -3.768793    2.716348   -0.537040
C     -0.825583   -0.946530   -0.593213
C     -2.144141    0.981739   -0.049016
C      0.437239   -0.168174   -0.721296
C     -1.734175   -0.339195    0.487710
N      3.694312    0.372828    1.971631
N      1.255012   -0.552175    0.431925
O     -5.086042    3.172886   -0.489366
O     -1.225687    0.713968    0.368403
O      1.309709    0.078957   -0.578724
O     -0.790723   -1.413132   -1.005958
O      0.155204   -1.236556    1.291156
S     -0.127152   -0.505404    0.005745
H     -3.282256   -2.394311   -2.410599
H     -2.076730   -3.043069   -1.270914
H      6.767844    0.483284   -0.303348
H     -4.401884   -1.208797   -0.754343
H     -4.035389   -2.795487   -0.059229
H      6.190370    2.423906    1.181256
H      5.325802   -1.521741   -0.289555
H     -1.101865   -1.320088   -2.730636
H     -2.262794   -0.114123   -2.004879
H     -0.672608    3.623925   -1.573660
H     -3.005174    4.436363   -1.491008
H      2.671929   -1.928818    2.198983
H      3.723738   -2.777631    1.046819
H     -2.442418   -2.081088    1.449542
H     -3.597753   -0.732934    1.438171
H     -1.333381   -0.465345    2.614960
H     -0.642374    0.977522    1.867398
H      4.236553    2.338838    2.620158
H      1.477057   -2.655840    0.111824
H      2.514624   -1.553650   -0.871505
H      1.073196   -0.402610    2.482878
H      0.409420   -1.891778    1.806661
H      0.728678    1.773214   -1.609006
H      0.809865    1.798956    0.155210
H     -4.206199    0.884263    0.403595
H     -0.555903   -1.981764   -0.263935
H      0.928021   -0.466387   -1.669632
H     -5.724196    2.972080   -1.259963
H     -0.920603    1.526906   -0.084025
H      1.599252    0.835261    0.003404
