57

C      6.889240    0.726415    0.430092
C      5.914721    1.359505    1.144430
C      6.612559   -0.359741   -0.371880
C     -3.268276   -2.594440   -0.371437
C     -4.058092   -1.518665   -1.027739
C      4.613931    0.884238    1.050191
C      5.294102   -0.821198   -0.451676
C     -2.105462   -2.017110    0.445971
C     -1.605502    1.484339    2.445515
C     -2.828741    2.065979    2.695929
C      2.872027   -0.711211    0.163743
C     -3.276481   -0.450707   -1.689993
C     -1.161167    0.869293   -1.741734
C      2.163681   -0.020246   -0.959784
C      0.110944    0.186647   -2.198384
C     -0.039106    0.217203    1.067576
C     -3.614895    1.307142    0.563461
C      4.281200   -0.196954    0.264240
C     -1.379411    0.811727    1.254828
C     -3.841537    1.984398    1.762884
C     -1.283389   -1.231505   -0.516034
C     -2.390245    0.727756    0.318684
C      0.069721   -0.804766    0.004460
C     -2.060344   -0.009820   -0.926597
N      0.829157   -0.430041   -1.144627
O     -5.068976    2.566333    2.010790
Cl     0.686870    0.000000    0.000000
H      7.910325    1.125643    0.524878
H      6.092442    2.217860    1.786946
H      7.416344   -0.826301   -0.917882
H     -3.934425   -3.206870    0.247949
H     -2.766177   -3.241674   -1.150331
H     -4.695148   -2.014601   -1.818797
H     -4.803457   -1.140845   -0.283404
H      3.796214    1.358064    1.603345
H      5.059649   -1.673207   -1.077436
H     -1.564508   -2.838253    0.940665
H     -2.561057   -1.385551    1.249815
H     -0.835506    1.568397    3.199763
H     -3.049884    2.599740    3.608109
H      2.405674   -0.581606    1.148841
H      2.939299   -1.811609   -0.007725
H     -3.936120    0.379475   -1.978192
H     -2.887819   -0.865636   -2.665667
H     -1.680783    1.295851   -2.629656
H     -0.815330    1.777222   -1.164341
H      2.735442   -0.287502   -1.898337
H      2.306002    1.082287   -0.866740
H     -0.180771   -0.498988   -3.021754
H      0.751703    0.981195   -2.642645
H      0.221119   -0.244939    2.058834
H      0.667857    1.063456    0.957024
H     -4.373320    1.224346   -0.179959
H     -1.129004   -1.875363   -1.425220
H      0.542624   -1.721729    0.420004
H     -5.301048    3.516567    1.759003
H     -0.686870    0.000000    0.000000
