55

C     -4.757484    1.016559    1.853796
C      1.158036   -2.962241   -0.975088
C     -2.034087    3.579385   -0.169557
C     -0.838414    3.070393   -0.620480
C     -2.917410    2.748700    0.485866
C      4.099560    1.234202   -0.858772
C      5.191249    0.413692   -0.185467
C     -1.627296   -2.050613   -2.100877
C     -0.592261   -0.957358   -1.962474
C     -0.541746   -0.710820    1.800507
C      0.921109   -0.920523    1.817799
C      0.808089    1.299036   -0.910881
C     -2.379848   -1.266160    0.167077
C      3.030042   -0.147975    1.138117
C      3.904728    0.885704    0.539324
C     -0.523264    1.744084   -0.422796
C     -2.091491   -2.443928   -0.729821
C     -2.618288    1.426301    0.690047
C      1.160189   -0.081236   -0.418373
C     -1.402881    0.942000    0.219965
C     -1.091491   -0.489649    0.404326
C     -0.043730   -1.003458   -0.557569
N      1.633016   -0.005407    0.907470
O     -2.231081   -3.572116   -0.348182
O     -3.524700    0.622333    1.350595
O      0.236919   -2.291892   -0.243521
H     -4.724697    1.975756    2.413983
H     -5.064913    0.224763    2.599986
H     -5.529011    1.004163    1.070045
H      2.176699   -2.516281   -0.965639
H      1.264007   -3.984670   -0.515139
H      0.914058   -3.157357   -2.035628
H     -2.278225    4.631318   -0.330880
H     -0.174467    3.765414   -1.136272
H     -3.861766    3.177992    0.842225
H      4.368218    2.314860   -1.062829
H      3.714357    0.755046   -1.747051
H      6.118678    0.953303    0.024746
H      5.252028   -0.663205   -0.425308
H     -1.337017   -2.893694   -2.722007
H     -2.565470   -1.642267   -2.597393
H      0.223671   -1.082785   -2.691935
H     -1.127929    0.010035   -2.159476
H     -0.858614    0.104937    2.482591
H     -1.016198   -1.648084    2.188758
H      1.283327   -0.574582    2.833620
H      1.288371   -1.955563    1.756002
H      0.801366    1.377021   -2.017543
H      1.507907    2.082300   -0.539554
H     -3.102495   -0.656936   -0.459718
H     -2.832757   -1.596515    1.105014
H      3.161402   -0.192816    2.262471
H      3.414004   -1.141914    0.776682
H      4.129458    1.742721    1.280683
H      1.928540   -0.491972   -1.101467
