60

C     -3.248868   -2.801354    0.884757
C     -3.651800   -2.548173   -0.568227
C     -2.331031   -1.678611    1.392233
C      4.573481   -0.963038   -1.502905
C     -2.227064    2.797890    1.554894
C     -3.468635    3.366750    1.398941
C      5.934140   -0.674493   -1.522701
C      2.405509   -0.963504   -0.338111
C     -3.892199   -1.062534   -0.823881
C     -1.966743    0.045908   -1.947680
C      1.548071    0.117365   -0.934625
C     -0.632812    0.726553   -1.700265
C      4.468903   -0.032627    0.719858
C     -0.625388    1.019157    1.072378
C     -4.178539    1.609942   -0.039313
C      8.016522    0.354848    1.157453
C      3.863695   -0.634444   -0.374898
C     -1.977205    1.607504    0.889060
C     -4.473639    2.796356    0.604557
C     -1.707042   -1.082725    0.187635
C     -2.942106    1.019095    0.099764
C     -0.425793   -0.310885    0.427596
C      6.527274   -0.079963   -0.437850
C      5.818400    0.258793    0.713128
C     -2.649734   -0.258402   -0.622844
N      0.177800   -0.214078   -0.906078
O     -5.724494    3.368552    0.446053
O      7.860246    0.290211   -0.253518
O      6.739021    0.831889    1.582841
Cl     0.692575    0.000000    0.000000
H     -2.664694   -3.764078    0.852202
H     -4.130593   -2.929597    1.510408
H     -2.954807   -2.979505   -1.289770
H     -4.641188   -3.032883   -0.700203
H     -1.600880   -2.057711    2.125068
H     -2.977545   -0.961015    1.954294
H      4.118514   -1.426044   -2.355205
H     -1.487011    3.277166    2.180573
H     -3.728080    4.308896    1.897366
H      6.480131   -0.939612   -2.419307
H      2.278398   -1.903428   -0.925388
H      2.130524   -1.178228    0.696170
H     -4.639512   -0.771359   -0.025926
H     -4.369547   -0.978145   -1.796924
H     -2.610963    0.743023   -2.503467
H     -1.830981   -0.886958   -2.484286
H      1.797235    1.092298   -0.454831
H      1.830313    0.235083   -2.024209
H     -0.710977    1.700530   -1.232124
H     -0.122419    0.824792   -2.671402
H      3.928492    0.234783    1.618255
H     -0.442814    0.988356    2.184997
H      0.115528    1.748071    0.632475
H     -4.908355    1.143063   -0.651255
H      8.107730   -0.665272    1.596038
H      8.846099    1.017044    1.451309
H     -1.398657   -1.943441   -0.478766
H      0.246630   -0.912761    1.054988
H     -6.470539    3.110952    1.100668
H     -0.692575    0.000000    0.000000
