57

C      7.118657    0.332871    0.584722
C      6.585473    0.419583   -0.678466
C      6.253887    0.435386    1.662110
C     -3.247209   -2.639692    0.993002
C     -3.861903   -2.285155   -0.311450
C      5.235933    0.603511   -0.933243
C      4.890600    0.620975    1.420810
C     -2.117845   -1.736818    1.417591
C     -2.324387    2.391160    1.155006
C     -3.409046    2.962466    0.562097
C      2.923690    0.891333   -0.055450
C     -2.920900   -1.745989   -1.333563
C     -0.952232   -0.467572   -1.971448
C      2.218993   -0.446300   -0.101413
C      0.335874    0.160016   -1.520408
C     -0.675046    0.622256    1.389239
C     -3.529876    1.104993   -0.938458
C      4.388511    0.703611    0.147005
C     -1.844582    1.167514    0.692291
C     -4.015653    2.314315   -0.492499
C     -1.173094   -1.484582    0.299440
C     -2.425567    0.498924   -0.353210
C     -0.053332   -0.570136    0.750500
C     -1.885233   -0.789704   -0.822011
N      0.837338   -0.295423   -0.294922
O     -5.113700    2.907375   -1.081751
Br     0.764587    0.000000    0.000000
H      8.169121    0.192196    0.760795
H      7.254907    0.340469   -1.549015
H      6.608290    0.372596    2.682236
H     -4.045783   -2.526538    1.783224
H     -2.908757   -3.676036    1.078968
H     -4.745941   -1.626635   -0.222516
H     -4.272482   -3.253259   -0.733494
H      4.849525    0.666983   -1.937137
H      4.238634    0.694356    2.266429
H     -2.567335   -0.836209    1.862260
H     -1.617183   -2.263202    2.275527
H     -1.849249    2.881982    1.968647
H     -3.773862    3.921132    0.935217
H      2.570878    1.497716    0.826617
H      2.736696    1.482846   -0.952944
H     -3.523530   -1.328743   -2.156892
H     -2.356467   -2.601091   -1.800102
H     -0.790181   -1.403913   -2.540026
H     -1.480864    0.234471   -2.638222
H      2.620044   -1.066925   -0.947336
H      2.404304   -0.955759    0.878770
H      1.089968   -0.034815   -2.316676
H      0.240847    1.275648   -1.489638
H      0.116375    1.411662    1.452177
H     -0.905595    0.369024    2.453221
H     -3.994087    0.593238   -1.757359
H     -0.771161   -2.463093   -0.042643
H      0.507526   -1.131569    1.542480
H     -5.043990    3.558550   -1.868087
H     -0.764587    0.000000    0.000000
