57

C      7.049567    0.358853    0.345757
C      6.536510   -0.479959    1.306519
C      6.279006    0.798857   -0.710915
C     -2.612294   -1.870495   -1.952936
C     -3.569126   -2.046158   -0.805255
C      5.210433   -0.891021    1.207318
C      4.962447    0.368045   -0.776284
C     -1.826585   -0.561808   -1.817009
C     -2.391559    3.074348    0.144944
C     -3.698277    3.288019    0.527347
C      3.006335   -0.891344    0.056242
C     -2.971986   -1.782756    0.529741
C     -1.215299   -0.762821    1.883688
C      2.185555    0.135620    0.747423
C      0.246110   -1.069034    1.567815
C     -0.450250    1.696662   -0.259192
C     -3.948226    0.924702    0.962650
C      4.418645   -0.470420    0.169169
C     -1.867355    1.771519    0.174718
C     -4.438536    2.204134    0.925094
C     -1.033610   -0.713167   -0.540412
C     -2.635604    0.706518    0.578763
C      0.067280    0.296213   -0.399503
C     -2.024057   -0.639169    0.597308
N      0.800150   -0.019367    0.789635
O     -5.777327    2.367142    1.324530
Br     0.765606    0.000000    0.000000
H      8.078793    0.703873    0.381333
H      7.180231   -0.797784    2.104819
H      6.668936    1.453363   -1.461985
H     -3.197282   -1.910892   -2.891226
H     -1.890223   -2.706148   -1.942348
H     -3.885333   -3.128220   -0.826490
H     -4.485166   -1.467546   -1.038390
H      4.785271   -1.548886    1.942954
H      4.382291    0.735446   -1.621886
H     -2.581469    0.234571   -1.638038
H     -1.225366   -0.434122   -2.711103
H     -1.822555    3.934557   -0.162880
H     -4.151640    4.268830    0.523180
H      2.791687   -1.001930   -1.017487
H      2.920096   -1.910386    0.501626
H     -2.368109   -2.699535    0.817906
H     -3.745742   -1.727039    1.309756
H     -1.218487    0.161564    2.487383
H     -1.621095   -1.571285    2.542907
H      2.574715    0.197408    1.808580
H      2.494021    1.134182    0.320993
H      0.396837   -2.082354    1.181435
H      0.760807   -1.051616    2.573024
H      0.158101    2.252141    0.478422
H     -0.395436    2.241576   -1.232869
H     -4.526241    0.093608    1.274676
H     -0.580932   -1.715440   -0.565464
H      0.670849    0.256778   -1.320244
H     -6.469503    2.292174    0.593508
H     -0.765606    0.000000    0.000000
