69

C     -6.001867   -2.867923   -1.223693
C     -2.796963    2.877926    1.736055
C     -6.036614    1.804431   -1.478435
C      4.372066   -2.059893    0.625430
C      4.871016   -1.563033   -0.679245
C      3.273004   -1.196401    1.239385
C      2.326651    2.815950    1.374206
C      3.495354    3.546894    1.247469
C     -1.583339   -2.076721    1.035212
C      3.948239   -0.785042   -1.527410
C      1.673613    0.147096   -1.838892
C     -0.635388   -2.137573   -0.116255
C      0.633490   -0.903435   -1.697137
C     -3.855233   -1.679101    0.068517
C     -2.750744    0.172800    1.054786
C      0.862787    0.928678    0.875172
C      4.261235    1.885941   -0.281335
C     -2.737353   -1.158497    0.718300
C      2.127462    1.637753    0.684594
C      4.464112    3.065137    0.407811
C      2.233277   -1.070397    0.158174
C      3.116228    1.151397   -0.169441
C      0.907069   -0.546353    0.646757
C     -4.964056   -0.940125   -0.253160
C     -3.844770    0.961528    0.753567
C     -4.932697    0.403038    0.107322
C      2.821300   -0.098125   -0.867074
N     -0.077809   -0.853900   -0.413458
O      5.632794    3.783762    0.271755
O     -6.067329   -1.487808   -0.902346
O     -3.910314    2.308293    1.071719
O     -6.051316    1.165417   -0.212209
Cl     0.688539    0.000000    0.000000
H     -6.901186   -3.215513   -1.763825
H     -5.792485   -3.423957   -0.288404
H     -5.072856   -2.978484   -1.856349
H     -2.984114    3.980432    1.871111
H     -2.721131    2.451699    2.770231
H     -1.874416    2.679925    1.180811
H     -7.075737    2.075781   -1.708940
H     -5.426627    2.722045   -1.379053
H     -5.606530    1.119259   -2.257543
H      3.903590   -3.070070    0.486661
H      5.222997   -2.188381    1.328409
H      5.850251   -1.018139   -0.516077
H      5.208443   -2.468071   -1.271955
H      3.763150   -0.231883    1.487144
H      2.925451   -1.659632    2.157447
H      1.560096    3.184851    2.031387
H      3.638738    4.479323    1.802905
H     -1.098198   -1.615265    1.908678
H     -1.986906   -3.093915    1.298664
H      4.545364   -0.036958   -2.129692
H      3.512520   -1.447306   -2.334173
H      2.120317    0.042225   -2.866366
H      1.253890    1.145443   -1.799294
H     -1.080279   -2.623278   -1.016294
H      0.175796   -2.866310    0.193061
H      0.958305   -1.926703   -1.951819
H     -0.167282   -0.665520   -2.459647
H     -3.873052   -2.736163   -0.210085
H     -1.903717    0.603099    1.561717
H      0.082097    1.455750    0.246265
H      0.469849    1.101872    1.923220
H      5.039811    1.528984   -0.936443
H      2.070258   -2.077793   -0.262706
H      0.695657   -1.099923    1.580791
H      5.794033    4.640862    0.764023
H     -0.688539    0.000000    0.000000
