67

C     -3.606923   -3.183254   -0.043466
C     -4.545370   -2.198214   -0.622072
C     -2.505466   -2.441931    0.712100
C     -1.755489    1.523618    2.302229
C     -2.671766    2.518923    2.233909
C      4.396446   -0.503081   -0.073634
C      4.426968    1.942855   -0.622135
C      2.349692    0.710208   -0.733018
C     -3.961351   -0.972035   -1.238428
C     -1.901487    0.108535   -1.950801
C      5.901473   -0.451387    0.024313
C      5.906228    1.897385   -0.431788
C      1.594264   -0.562552   -1.021157
C     -0.497994    0.513374   -1.612150
C     -0.702927   -0.509808    1.484364
C     -3.548755    1.530384    0.232402
C      3.836540    0.575946   -0.965876
C     -1.732346    0.522709    1.331337
C     -3.572319    2.533786    1.205906
C     -1.742819   -1.699642   -0.357349
C     -2.628573    0.513551    0.284691
C     -0.447900   -1.152098    0.142914
C     -2.632986   -0.533559   -0.761273
N      6.476623    0.609280   -0.757640
N      0.216890   -0.337690   -0.775986
O     -4.503313    3.560648    1.153507
O      1.403009   -0.334027   -0.647077
O     -1.115771   -0.898636    0.164655
O     -0.449862    1.412087   -0.913166
O      0.281203    0.886309    1.383532
S     -0.009244    0.322420    0.024114
H     -4.140844   -3.819755    0.688724
H     -3.078765   -3.811981   -0.790962
H     -5.173190   -2.736844   -1.389296
H     -5.296640   -1.916725    0.168757
H     -1.892899   -3.144426    1.283052
H     -3.033462   -1.746034    1.402651
H     -1.035972    1.516460    3.125744
H     -2.663121    3.295033    3.016621
H      3.967939   -0.442383    0.945863
H      4.125482   -1.490633   -0.528806
H      4.129206    2.636602   -1.435875
H      3.888265    2.312709    0.293371
H      1.957077    1.545333   -1.338626
H      2.227071    0.925750    0.354211
H     -3.918962   -1.161283   -2.356980
H     -4.724691   -0.178374   -1.141665
H     -2.471622    1.063588   -2.145717
H     -2.006150   -0.545963   -2.811294
H      6.235204   -0.296849    1.076048
H      6.363941   -1.397217   -0.297502
H      6.378053    2.644484   -1.124380
H      6.140323    2.228009    0.585038
H      1.796870   -0.928870   -2.065926
H      2.017101   -1.355678   -0.363803
H      0.044017    0.626427   -2.583843
H     -0.506082    1.551550   -1.167636
H     -1.047745   -1.276849    2.194503
H      0.252790   -0.113187    1.882497
H     -4.308467    1.651096   -0.538681
H      3.996101    0.305035   -2.007959
H     -1.571468   -2.345098   -1.212518
H      0.211676   -2.046895    0.353613
H      6.401278    0.458775   -1.777296
H     -5.409656    3.478243    1.607718
H      1.914163   -0.705668    0.114679
H     -2.023497   -0.682485   -0.126737
