50

C      5.059193    0.589946   -0.522945
C      3.690438    0.061214   -0.843282
C     -2.189669   -2.948000   -0.235584
C     -2.726450   -2.116075   -1.369298
C     -0.765171   -2.654623    0.079185
C     -0.633855    1.428014    2.717532
C     -1.595907    2.428659    2.666987
C     -2.601359   -0.669245   -0.945454
C     -0.634780    0.634444   -1.726167
C      2.675367    0.843354   -0.040199
C      0.843948    0.731572   -1.556322
C      0.554556   -0.518003    1.756030
C     -2.226286    1.632540    0.544393
C     -0.477460    0.533629    1.673026
C     -2.406191    2.529061    1.555969
C     -0.235457   -1.389730   -0.457271
C     -1.268737    0.626440    0.580278
C      0.954053   -0.821974    0.305499
C     -1.207618   -0.268314   -0.618552
N      1.330079    0.435034   -0.255161
O     -3.356268    3.538781    1.537051
Br     0.763451    0.000000    0.000000
H      5.209980    1.592160   -0.997449
H      5.249594    0.616166    0.574364
H      5.799797   -0.089068   -0.999668
H      3.533744    0.172607   -1.933246
H      3.629322   -0.996498   -0.512665
H     -2.830316   -2.749256    0.646488
H     -2.355134   -4.014473   -0.508041
H     -2.287300   -2.336896   -2.337872
H     -3.827106   -2.321490   -1.429131
H     -0.163361   -3.514862   -0.343802
H     -0.645133   -2.793235    1.186981
H     -0.012059    1.378860    3.609910
H     -1.692107    3.119507    3.513257
H     -3.296289   -0.556674   -0.061201
H     -3.015767    0.009678   -1.720601
H     -0.883718    0.133067   -2.700803
H     -1.165231    1.607978   -1.762648
H      2.799394    1.943888   -0.152005
H      2.938931    0.645263    1.039632
H      1.345200    0.172519   -2.372976
H      1.115237    1.811669   -1.749012
H      0.277240   -1.397268    2.327237
H      1.476563   -0.105984    2.236348
H     -2.888002    1.740549   -0.324493
H      0.175770   -1.613184   -1.487699
H      1.806135   -1.531621    0.273780
H     -3.077813    4.449875    1.139601
H     -0.763451    0.000000    0.000000
