70

C      7.193923    0.723512    0.175831
C     -3.213501    3.149652   -0.027849
C     -4.426823    2.353525    0.412936
C     -2.372193    2.138320   -0.826015
C     -2.976112   -2.452843   -1.694706
C     -4.151180   -3.106007   -1.402274
C      4.132060    0.573878   -1.340033
C      4.101955   -1.152950    0.363844
C      2.034587    0.135510   -0.240058
C     -4.083124    1.198479    1.308202
C     -2.283629   -0.266826    2.096938
C      5.554538    0.216611   -1.512762
C      5.584197   -1.026216    0.551519
C      1.237210   -0.208778    0.977774
C     -0.830616   -0.441349    2.004896
C     -1.302780   -0.709275   -1.352785
C     -4.542887   -1.498235    0.366769
C      3.525596    0.187831    0.004546
C     -2.588608   -1.330381   -0.961281
C     -4.920922   -2.622120   -0.375862
C     -1.901119    1.152096    0.180535
C     -3.372271   -0.857900    0.064055
C     -0.770620    0.269469   -0.324412
C     -2.962692    0.328157    0.847325
N      6.257295   -0.203907   -0.373172
N     -0.151968   -0.295417    0.787181
O     -6.116063   -3.253903   -0.047178
O     -0.959018   -0.880847   -0.379684
O      1.593728   -0.030265   -0.233460
O     -0.371689    1.532157   -0.995203
O     -0.166652    0.898640    1.401164
S     -0.007406    0.445940   -0.004630
H      7.991236    0.125141    0.700761
H      7.704497    1.223983   -0.673351
H      6.761626    1.508578    0.811859
H     -2.577078    3.388768    0.870195
H     -3.511783    4.014681   -0.605070
H     -5.062049    3.048517    1.034582
H     -4.958034    2.034029   -0.501744
H     -1.483929    2.670069   -1.226144
H     -2.930013    1.717026   -1.673692
H     -2.358150   -2.827111   -2.506190
H     -4.424464   -3.980465   -1.996921
H      3.940587    1.676351   -1.527153
H      3.528936    0.063061   -2.114176
H      3.708558   -1.565555    1.321697
H      3.847462   -1.892467   -0.431761
H      1.787776    1.213703   -0.495696
H      1.860080   -0.556865   -1.073559
H     -3.816250    1.665530    2.306273
H     -5.022675    0.667641    1.508662
H     -2.821837   -1.222155    2.379132
H     -2.517374    0.410949    2.955715
H      5.703687   -0.548014   -2.326936
H      6.083032    1.127676   -1.925037
H      5.994472   -2.073400    0.425976
H      5.849022   -0.759355    1.595647
H      1.484771    0.549421    1.761315
H      1.560819   -1.194342    1.429790
H     -0.596889   -1.481669    2.391508
H     -0.300003    0.220056    2.758190
H     -0.535242   -1.504487   -1.533172
H     -1.510101   -0.132285   -2.288571
H     -5.226578   -1.215537    1.162302
H      3.767764    0.911396    0.800262
H     -1.421106    1.749759    1.013931
H     -0.142169    0.986148   -0.928726
H     -7.012850   -3.019713   -0.446606
H     -1.749647   -0.971544    0.189944
H      1.660684   -0.994081    0.021868
