54

C      8.367563   -0.036852   -0.275076
C      7.433090   -0.297167   -1.394185
C      7.832837    0.536865    0.835217
C     -2.762495   -1.575087   -2.626908
C     -3.660704   -0.373322   -2.520862
C      2.866940    0.476896    0.442588
C      6.189167    0.026736   -1.239422
C      6.496546    0.862410    0.927070
C      4.279215    0.538821    0.149292
C     -1.893728   -1.858143   -1.434273
C     -2.757714   -1.169457    2.797761
C     -4.092595   -0.914572    3.048618
C     -3.113004    0.726253   -1.726636
C     -1.554852    1.632815   -0.055121
C      1.683976    0.428498    0.704841
C     -0.060938    1.665775   -0.351291
C     -0.717318   -1.136532    1.377491
C     -4.260086   -0.008132    0.866598
C      5.599818    0.607876   -0.103910
C     -2.116588   -0.858995    1.565214
C     -4.809997   -0.363434    2.068538
C     -1.247185   -0.602932   -1.001008
C     -2.997531   -0.211902    0.624248
C     -0.212136   -0.784316    0.009041
C     -2.263157    0.379074   -0.579129
N      0.522029    0.461237    0.079704
O     -6.203065   -0.112361    2.189572
H      9.321261   -0.411804   -0.378445
H      7.914658   -0.712625   -2.241612
H      8.413614    0.702674    1.740426
H     -2.123495   -1.514934   -3.561164
H     -3.374080   -2.470554   -2.765505
H     -4.659098   -0.724668   -2.159002
H     -3.836337   -0.039404   -3.560685
H      5.379003   -0.196313   -2.063154
H      6.098542    1.356746    1.803570
H     -1.215411   -2.703257   -1.686426
H     -2.600720   -2.106743   -0.594662
H     -2.229369   -1.625599    3.614495
H     -4.586214   -1.016545    4.041440
H     -4.003735    1.355043   -1.349399
H     -2.526884    1.460295   -2.356516
H     -1.644542    1.796057    1.011284
H     -2.003482    2.521155   -0.581233
H      1.572270    1.218260    1.718018
H      1.566646   -0.554045    1.530104
H      0.030327    2.008300   -1.398041
H      0.358286    2.536315    0.257270
H     -0.404587   -2.167048    1.562929
H     -0.215156   -0.423772    2.191271
H     -4.957958    0.424843    0.091134
H     -0.759000   -0.188125   -1.940536
H      0.543616   -1.515978   -0.409334
H     -6.606242   -0.511249    3.105803
