58

C      7.559782    0.114479    0.363870
C      6.582074   -0.830661    0.204596
C      7.226588    1.432701    0.159935
C     -3.278310   -1.967937   -1.780377
C     -3.932323   -2.255397   -0.471008
C      5.281367   -0.463754   -0.155444
C      5.951102    1.785532   -0.191807
C     -2.353853   -0.766503   -1.738516
C     -2.525007    2.717098    0.325242
C     -3.813328    2.926061    0.765350
C     -3.074703   -2.100685    0.722800
C     -1.094565   -1.036216    1.765828
C      0.309381   -1.286492    1.368621
C      2.014441    0.035987    0.360797
C      2.530864    0.645520   -0.890336
C     -0.557495    1.300742   -0.195898
C     -4.004112    0.566123    1.157465
C     -1.958438    1.438083    0.294034
C     -4.568255    1.842861    1.188123
C      4.917909    0.842552   -0.364421
C     -1.376310   -1.044053   -0.646971
C     -2.722196    0.373684    0.717392
C     -0.197588   -0.073499   -0.648955
C     -2.102603   -0.962664    0.673917
N      0.784950   -0.690901    0.181290
O     -5.872955    1.963241    1.646341
O      3.710599    1.327005   -0.705298
Cl     0.684770    0.000000    0.000000
H      8.581989   -0.125255    0.642400
H      6.826081   -1.863192    0.360030
H      8.008896    2.179762    0.287608
H     -2.620741   -2.839361   -2.063700
H     -4.042485   -1.798076   -2.561205
H     -4.269565   -3.333833   -0.508410
H     -4.888698   -1.677058   -0.442617
H      4.538687   -1.237616   -0.303159
H      5.697209    2.834600   -0.351319
H     -1.812264   -0.718749   -2.697287
H     -2.927676    0.161947   -1.615528
H     -1.945603    3.567824   -0.001847
H     -4.285046    3.894327    0.804538
H     -2.444933   -3.035216    0.807495
H     -3.704815   -2.113690    1.635117
H     -1.399523   -1.884165    2.448958
H     -1.141847   -0.138284    2.451490
H      0.492948   -2.382483    1.315548
H      0.966700   -0.935197    2.216403
H      2.746439   -0.627293    0.814165
H      1.875375    0.856194    1.144980
H      2.628678   -0.161795   -1.692533
H      1.812488    1.363112   -1.359362
H     -0.442436    2.062455   -1.023340
H      0.089293    1.691873    0.625310
H     -4.570572   -0.280314    1.479641
H     -0.978665   -2.059088   -0.766098
H      0.135797   -0.063758   -1.731722
H     -6.362728    2.829426    1.706071
H     -0.684770    0.000000    0.000000
