60

C      6.974621    0.100382    0.103584
C      5.920097   -0.197679    0.970701
C      6.756344    0.247842   -1.241469
C     -1.663532   -1.644348    2.984552
C     -3.037270   -1.825751    2.385166
C      2.303259    0.968308   -1.488634
C      4.642590   -0.341243    0.435455
C      5.474966    0.097633   -1.733235
C      3.062785   -0.349814   -1.462794
C     -0.983338   -0.510262    2.236525
C     -2.554657    2.695671   -0.036521
C     -3.911156    2.826357   -0.260605
C     -2.990190   -2.048904    0.896934
C     -1.900566   -1.541390   -1.256089
C      0.937788    0.687419   -2.072337
C     -1.088082   -0.480046   -1.974489
C     -0.525354    1.391594    0.339122
C     -4.108053    0.395142   -0.195483
C      4.413924   -0.195931   -0.906982
C     -2.002679    1.439502    0.102663
C     -4.661978    1.674495   -0.335853
C     -0.777624   -0.970368    0.820890
C     -2.759422    0.289624    0.026528
C      0.051531    0.041801    0.071628
C     -2.156316   -1.048573    0.175262
N      0.179695   -0.245589   -1.312839
O     -6.021704    1.799137   -0.560247
Br     0.762400    0.000000    0.000000
H      7.974656    0.213201    0.519496
H      6.050667   -0.320688    2.028550
H      7.547687    0.475550   -1.921878
H     -1.058019   -2.566711    2.975670
H     -1.789779   -1.344373    4.028101
H     -3.488877   -2.727326    2.862031
H     -3.652392   -0.963915    2.646803
H      2.894636    1.654238   -2.122649
H      2.231108    1.415046   -0.485769
H      3.829935   -0.575709    1.138198
H      5.333686    0.219665   -2.797807
H      2.541837   -1.141637   -0.907629
H      3.113578   -0.660308   -2.550997
H     -1.694494    0.346033    2.286689
H     -0.038099   -0.207215    2.725633
H     -1.960857    3.596783    0.023322
H     -4.352818    3.816419   -0.371269
H     -2.573174   -3.079803    0.690902
H     -4.027393   -2.089438    0.526924
H     -1.373628   -2.500576   -1.237867
H     -2.845802   -1.655733   -1.789017
H      1.027572    0.358607   -3.148565
H      0.390304    1.646603   -2.125692
H     -0.853253   -0.888460   -2.982565
H     -1.686173    0.428998   -2.121968
H     -0.359118    1.614849    1.417433
H     -0.013511    2.191569   -0.220650
H     -4.794602   -0.435406   -0.276016
H     -0.348564   -1.977150    0.788755
H      1.059273    0.022929    0.542746
H     -6.660064    1.878949    0.208190
H     -0.762400    0.000000    0.000000
