60

C      8.791110    0.736738    2.245173
C     -4.599365   -1.631703   -0.099968
C     -4.552320   -1.697295   -1.596933
C     -3.291167   -1.858645    0.572220
C     -2.688309    2.043142    1.569868
C      5.040522   -0.872023   -0.507638
C      4.060582    0.890391    0.689495
C     -3.652151    2.910640    1.163975
C      6.295678   -0.384233   -0.290687
C      5.320850    1.418856    0.931882
C     -3.426789   -0.929583   -2.215755
C     -1.180334   -0.039761   -2.038390
C     -0.025872   -0.935094   -1.680099
C     -1.233447    0.112177    1.349753
C     -3.872395    1.654356   -0.876036
C      1.343947   -0.254808    0.177778
C      3.914367   -0.262648   -0.034599
C     -2.294767    0.968823    0.771817
C     -4.239631    2.704602   -0.066843
C      6.441386    0.783636    0.443070
C     -2.092697   -1.490881   -0.269875
C     -2.883586    0.765811   -0.457599
C     -0.892420   -1.095919    0.564833
C      2.603552   -0.835525   -0.308651
C     -2.425653   -0.382790   -1.248597
N      0.240320   -0.992873   -0.281113
O     -5.220940    3.593528   -0.472183
O      2.532862   -1.887116   -0.999926
S      8.088058    1.400936    0.715311
Cl     0.690034    0.000000    0.000000
H      9.902786    0.611907    2.122316
H      8.619046    1.459013    3.080218
H      8.332626   -0.244868    2.469386
H     -5.280811   -2.472700    0.228952
H     -5.122746   -0.711527    0.233277
H     -5.505708   -1.260944   -1.977954
H     -4.584174   -2.773484   -1.936908
H     -3.242481   -1.228735    1.496805
H     -3.176339   -2.905706    0.930931
H     -2.227218    2.216349    2.551915
H      4.932127   -1.798378   -1.091057
H      3.212017    1.416785    1.088864
H     -3.948019    3.749258    1.806487
H      7.160892   -0.915137   -0.694003
H      5.441594    2.325969    1.500947
H     -2.861910   -1.661590   -2.860818
H     -3.754341   -0.138318   -2.913332
H     -0.861989    1.003080   -1.788234
H     -1.324292   -0.117019   -3.134486
H      0.869955   -0.569412   -2.213997
H     -0.230927   -1.961506   -2.043381
H     -0.374803    0.773278    1.579583
H     -1.619589   -0.226566    2.355442
H     -4.335154    1.490699   -1.849286
H      1.211870    0.804934   -0.098521
H      1.390876   -0.290385    1.296422
H     -1.821782   -2.383901   -0.850187
H     -0.719668   -1.975851    1.254910
H     -6.183227    3.352011   -0.207272
H     -0.690034    0.000000    0.000000
