59

C     -2.913942    2.400234    2.050232
C     -3.397989    2.730563    0.678691
C     -2.239637    1.014300    2.037868
C      4.591693   -1.344462    0.142224
C      4.674628    1.003381    0.425267
C     -2.489651   -3.008853    0.034751
C      5.896872   -1.349267   -0.217924
C      5.985527    1.019129    0.066411
C     -3.695142   -3.310086   -0.551259
C      2.490795   -0.167619    0.823831
C     -3.628705    1.543772   -0.222305
C     -1.658506    0.897810   -1.667321
C      1.803943    0.224991   -0.464048
C     -0.183755    0.855766   -1.569193
C     -0.741593   -1.429242    0.748640
C     -4.067741   -1.007852   -1.010976
C      3.962205   -0.173110    0.468044
C     -2.041918   -1.695402    0.111990
C      6.605647   -0.172673   -0.259616
C     -4.497057   -2.324358   -1.078716
C     -1.484256    0.976140    0.759696
C     -2.855156   -0.743166   -0.417783
C     -0.319724    0.012978    0.720181
C     -2.397821    0.684874   -0.377428
N      0.417780    0.293030   -0.433244
N      7.977252   -0.179343   -0.640777
O     -5.719424   -2.571217   -1.679660
O      8.588967   -1.373267   -0.953691
O      8.658505    0.841313   -0.709638
Cl     0.688722    0.000000    0.000000
H     -2.050744    3.099290    2.265050
H     -3.621160    2.519105    2.864008
H     -2.713177    3.445843    0.142660
H     -4.366436    3.264353    0.769717
H     -1.606980    0.880057    2.939088
H     -3.070457    0.281410    1.994407
H      4.006621   -2.272747    0.185580
H      4.157324    1.939609    0.689833
H     -1.864428   -3.811832    0.450128
H      6.369093   -2.276643   -0.465757
H      6.559939    1.936253    0.023753
H     -4.022315   -4.335255   -0.602855
H      2.387320    0.622309    1.597892
H      2.263424   -1.180740    1.169804
H     -3.929685    1.940517   -1.209517
H     -4.482325    0.976224    0.190657
H     -1.982566    0.137132   -2.448046
H     -1.980392    1.868871   -2.111333
H      2.329094    1.147947   -0.815739
H      2.116206   -0.559498   -1.213001
H      0.218582    1.902238   -1.796046
H      0.213447    0.282465   -2.469863
H      0.020478   -2.019850    0.176799
H     -0.690509   -1.860605    1.786832
H     -4.711445   -0.233504   -1.433706
H     -1.036937    1.983139    0.562934
H      0.222087    0.191495    1.685141
H     -6.055856   -3.515946   -1.742666
H     -0.688722    0.000000    0.000000
