56

C      6.793272    0.403581   -0.260930
C      5.327413    0.525435   -0.703147
C      4.547659   -0.425768    0.130711
C     -2.832062   -1.700961    1.556831
C     -2.917305   -2.528129    0.318359
C      3.078539   -0.475674   -0.137004
C     -1.424236   -1.288172    1.844200
C     -3.000653    2.514495    0.685441
C     -4.212173    2.494217    0.029919
C     -2.159890   -2.000288   -0.850673
C     -0.574432   -0.391718   -1.735552
C      2.363343    0.819508    0.066906
C      0.540644    0.540466   -1.502133
C     -0.802319    1.496978    1.191263
C     -3.649870    0.421128   -1.020293
C     -2.087317    1.470588    0.491161
C     -4.532966    1.448093   -0.820730
C     -0.620833   -0.890368    0.647019
C     -2.444241    0.439254   -0.368837
C      0.132751    0.378750    0.871332
C     -1.493933   -0.653909   -0.579184
N      0.981547    0.740858   -0.193702
O     -5.776563    1.481395   -1.459157
Cl     0.691432    0.000000    0.000000
H      6.814656    0.356215    0.835430
H      7.297305    1.317340   -0.585911
H      7.272987   -0.465634   -0.759053
H      5.061790    1.582962   -0.561946
H      5.316623    0.225122   -1.777445
H      4.942249   -1.459579   -0.087776
H      4.750706   -0.269059    1.207566
H     -3.561809   -0.861049    1.574852
H     -3.169607   -2.366294    2.406824
H     -3.987880   -2.665674    0.051955
H     -2.556336   -3.563606    0.594587
H      2.832666   -0.863783   -1.142745
H      2.656365   -1.182797    0.640418
H     -0.930557   -2.144365    2.389408
H     -1.444513   -0.462935    2.608781
H     -2.734805    3.333842    1.358145
H     -4.947403    3.280827    0.152786
H     -1.281507   -2.691618   -1.046307
H     -2.707353   -1.996919   -1.810567
H     -0.179531   -1.386216   -2.088297
H     -1.221383   -0.020646   -2.578763
H      2.794486    1.636511   -0.580561
H      2.502010    1.113748    1.148381
H      0.269774    1.543375   -1.949754
H      1.411153    0.208859   -2.137060
H     -0.288235    2.455936    0.886387
H     -0.941285    1.629236    2.302324
H     -3.903328   -0.377999   -1.675201
H      0.042479   -1.733170    0.389266
H      0.766846    0.219257    1.790193
H     -6.112939    0.788355   -2.087494
H     -0.691432    0.000000    0.000000
