47

C      5.371055   -0.141999   -0.435950
C     -1.148988    2.929015   -0.173305
C     -2.353044    2.155087    0.317744
C     -0.209441    1.931524   -0.809225
C     -1.512239   -2.117779   -1.943509
C     -2.886042   -2.313831   -1.929350
C     -1.882041    1.269447    1.450678
C     -0.366861   -0.667798    1.953806
C      1.106782   -0.554809    2.067773
C      0.581713   -1.157907   -1.131938
C     -2.991082   -0.832977   -0.059773
C      3.222286   -0.321099    0.959416
C      3.940844   -0.568436   -0.299766
C     -0.888732   -1.289415   -1.026315
C     -3.640306   -1.663569   -0.974874
C      0.210282    0.939321    0.239594
C     -1.641229   -0.647128   -0.082258
C      1.167068   -0.086916   -0.284996
C     -0.958108    0.231383    0.882444
N      1.849540   -0.639329    0.846005
O      3.435765   -1.108976   -1.257641
O     -5.019659   -1.839771   -0.934714
H      5.797475   -0.461697   -1.389689
H      5.493086    0.955148   -0.324054
H      5.984697   -0.626175    0.363574
H     -1.416622    3.695412   -0.918877
H     -0.621439    3.437642    0.653412
H     -3.132615    2.880169    0.665887
H     -2.711997    1.561704   -0.546555
H      0.700174    2.497633   -1.103928
H     -0.622282    1.475831   -1.709189
H     -0.954769   -2.643961   -2.705566
H     -3.392925   -2.960384   -2.641502
H     -1.249558    1.914379    2.125495
H     -2.710341    0.854456    2.048859
H     -0.855092   -0.392886    2.897374
H     -0.612654   -1.746901    1.786876
H      1.444668   -1.367927    2.766650
H      1.370502    0.388094    2.577230
H      0.970919   -2.162854   -0.784119
H      0.843201   -1.077932   -2.205761
H     -3.605989   -0.345317    0.665366
H      3.660644   -0.866241    1.823340
H      3.297625    0.771450    1.237594
H      0.721087    1.511876    1.035578
H      1.901725    0.492023   -0.917646
H     -5.687082   -1.287581   -1.418746
