51

C      4.337394   -0.462601    1.206603
C      5.455848    1.278730   -0.027681
C     -2.502844    2.254284   -0.955465
C     -3.195578    1.538978    0.187822
C     -1.494226    1.245890   -1.531643
C     -1.121758   -2.898514   -1.368543
C     -2.290536   -3.491260   -0.953276
C     -2.228136    1.049600    1.238165
C     -0.067136   -0.040102    1.710213
C      1.241037    0.651676    1.440132
C      0.547952   -1.102704   -1.335184
C     -2.702450   -1.702160    0.501219
C      2.958716    0.951968   -0.244806
C      4.207001    0.516028    0.355388
C     -0.724528   -1.662036   -0.832898
C     -3.114515   -2.915893   -0.010280
C     -0.494459    1.018238   -0.455220
C     -1.526839   -1.067573    0.108200
C      0.740158    0.314143   -0.894407
C     -1.114668    0.229161    0.674098
N      1.747960    0.340742    0.142982
O     -4.282029   -3.527963    0.392397
Br     0.760092    0.000000    0.000000
H      3.583609   -1.122789    1.605104
H      5.360962   -0.673319    1.599131
H      6.030312    0.593434   -0.685288
H      5.216823    2.212775   -0.575645
H      6.093594    1.481914    0.853306
H     -1.939818    3.134812   -0.577714
H     -3.269210    2.524820   -1.690236
H     -3.861466    2.288892    0.676822
H     -3.840883    0.745660   -0.231325
H     -1.067812    1.627099   -2.475150
H     -2.071660    0.313591   -1.699297
H     -0.496678   -3.387436   -2.119848
H     -2.602771   -4.459442   -1.370597
H     -2.801396    0.583467    2.037258
H     -1.749720    1.973543    1.661367
H      0.154364   -1.123168    1.835836
H     -0.430006    0.311337    2.716131
H      1.090269    1.749817    1.590923
H      1.960218    0.351700    2.211738
H      1.357304   -1.721650   -0.849589
H      0.616527   -1.205168   -2.449211
H     -3.302877   -1.221220    1.230929
H      3.014093    0.858701   -1.379323
H      2.800412    2.077348   -0.123870
H     -0.190069    2.000250   -0.038126
H      1.136251    0.912724   -1.776944
H     -5.166736   -3.346324   -0.091040
H     -0.760092    0.000000    0.000000
