77

C     -6.137076   -1.079302   -2.256780
C     -2.800312    2.161254    2.677286
C     -3.868182    1.863709    1.618918
C     -1.797753    1.034192    2.629656
C      4.670877    0.643457   -1.851049
C     -2.546345   -2.759088    0.448599
C     -3.689873   -2.989477   -0.282820
C      6.018254    0.925539   -1.772370
C      2.679283   -0.666956   -1.061854
C     -3.159186    1.973519    0.277599
C     -1.236944    1.226085   -1.090397
C      1.982394    0.239099   -0.053567
C     -0.116241    0.255742   -1.253205
C      4.958325   -0.975263   -0.133080
C     -0.765526   -1.368524    1.394693
C     -3.759470   -0.643519   -0.728720
C      8.521013   -0.498092    0.411846
C      4.134542   -0.315482   -1.024317
C     -1.989225   -1.505294    0.610945
C     -4.309083   -1.915261   -0.882928
C     -1.088004    1.084996    1.306016
C     -2.595981   -0.431954    0.020278
C     -0.096167   -0.014560    1.151645
C      6.867877    0.275268   -0.884279
C      6.301199   -0.684186   -0.065409
C     -2.072659    0.948183    0.144299
N      0.589067   -0.083299   -0.073587
O     -5.457533   -2.139500   -1.619425
O      8.220597    0.396004   -0.642372
O      7.346484   -1.186572    0.725398
C     -0.821909   -0.379643   -0.238064
C      0.350994   -0.792945    0.611993
C     -1.174659    1.049600   -0.132509
C      1.629376   -0.198916    0.265313
O     -1.915505   -1.094842    0.314482
O      0.450116   -2.183775    0.468957
O     -2.259934    1.450053    0.394498
O     -0.349083    2.062392   -0.600770
O      2.572153   -0.942133   -0.110061
O      1.926242    1.156225    0.308708
H     -5.640337   -0.746076   -3.201420
H     -7.206960   -1.383055   -2.471627
H     -6.244779   -0.182427   -1.616614
H     -2.289012    3.092770    2.317330
H     -3.253326    2.283000    3.678002
H     -4.677652    2.605161    1.633778
H     -4.187514    0.827760    1.781052
H     -1.035838    1.192676    3.417457
H     -2.314607    0.064437    2.792497
H      4.006981    1.165338   -2.559027
H     -2.060993   -3.601986    0.918451
H     -4.091775   -4.004597   -0.382368
H      6.460482    1.674959   -2.413051
H      2.307816   -0.469302   -2.083466
H      2.540522   -1.719383   -0.746379
H     -2.699093    2.986679    0.194541
H     -3.895982    1.889711   -0.516992
H     -1.904742    1.217770   -1.970969
H     -0.833720    2.250441   -0.968849
H      2.377873    0.038268    0.959296
H      2.182473    1.315545   -0.303981
H     -0.544164   -0.673321   -1.677277
H      0.595019    0.650647   -2.000602
H      4.555800   -1.738220    0.532827
H     -0.896445   -1.538538    2.492251
H     -0.014396   -2.155396    1.090825
H     -4.283425    0.152789   -1.228782
H      9.301293   -1.238285    0.107843
H      8.882932    0.071311    1.308973
H     -0.592996    2.051257    1.199201
H      0.652212    0.085747    1.976061
H     -0.655318   -0.722857   -1.267234
H      0.073893   -0.614694    1.678773
H     -1.983595   -0.792502    1.268585
H     -0.054440   -2.529780   -0.295098
H     -0.354450    3.009255   -0.240690
H      2.566120    1.524558   -0.385417
