54

C      5.908151    0.612138   -0.241795
C      4.717218    0.778716    0.704813
C     -2.593340    1.605238    2.085087
C     -3.909306    1.904906    1.705080
C     -3.164046   -2.363827    0.313757
C     -1.750818   -2.233450    0.826628
C     -0.575256    0.485510   -1.548924
C      0.869402    0.122876   -1.367524
C      5.258189    0.047185   -1.494741
C     -0.393422    0.452054    1.565522
C      2.356904    0.223190    0.557215
C     -1.774536    0.835405    1.249619
C      3.691929   -0.091228   -0.032840
C     -4.400654    1.442515    0.507560
C     -3.166536   -2.184908   -1.147920
C      0.154792   -0.691772    0.788678
C     -2.338826    0.424071    0.092982
C     -3.598114    0.674937   -0.334968
C     -2.669662   -0.918058   -1.743204
C     -1.558481   -0.398564   -0.875074
C     -0.843545   -1.448809   -0.062652
N      1.231658   -0.333993   -0.090864
O     -5.682831    1.738666    0.144165
O     -3.584401   -3.097696   -1.838772
O     -0.142025   -2.291959   -0.909406
O      3.879468    0.322424   -1.328561
O     -3.731076    0.050971   -1.568865
Cl     0.689546    0.000000    0.000000
H      6.615398   -0.135252    0.189980
H      6.379882    1.599538   -0.421718
H      4.333860    1.800996    0.686501
H      4.922516    0.374236    1.695060
H     -2.201964    1.963794    3.018953
H     -4.473958    2.503406    2.406672
H     -3.769682   -1.627039    0.855751
H     -3.544053   -3.363124    0.610819
H     -1.725006   -1.790701    1.855546
H     -1.316342   -3.250777    0.945460
H     -0.663601    1.560805   -1.227219
H     -0.794135    0.480064   -2.638303
H      1.482371    1.010171   -1.642095
H      1.101739   -0.671025   -2.137437
H      5.371184   -1.067360   -1.468939
H      5.660290    0.511219   -2.405238
H     -0.342445    0.293353    2.676092
H      0.275109    1.344032    1.368493
H      2.375497   -0.222920    1.599296
H      2.300901    1.315069    0.739808
H      3.993127   -1.154137    0.063061
H      0.570028   -1.440388    1.519760
H     -2.416604   -1.023777   -2.799962
H     -6.037713    1.392524   -0.735426
H     -0.287235   -3.256390   -0.709913
H     -0.689546    0.000000    0.000000
