54

C     -5.846859   -0.047697   -0.266221
C     -4.827132    0.091773    0.858068
C      2.345925   -2.778153   -0.921577
C      3.501189   -2.588517   -1.646427
C      3.379777    0.657382    1.805752
C      1.979670    0.255299    2.113709
C      0.395141    1.312726   -1.142898
C     -0.914072    0.635996   -1.012932
C     -5.042587    0.343873   -1.459035
C      0.417024   -1.771175    0.363266
C     -2.383724    0.241724    0.878993
C      1.648695   -1.658752   -0.449168
C     -3.566406   -0.277780    0.097823
C      3.956801   -1.301054   -1.897632
C      3.544296    1.705006    0.800034
C     -0.078990   -0.508638    0.953764
C      2.127137   -0.435233   -0.718526
C      3.255595   -0.180087   -1.423265
C      2.666634    1.770897   -0.378242
C      1.502512    0.804725   -0.285632
C      0.949310    0.612347    1.109278
N     -1.187246   -0.033248    0.186274
O      5.116170   -1.116588   -2.624236
O      4.415753    2.539008    0.929370
O      0.238573    1.753195    1.473209
O     -3.700176    0.266034   -1.163227
O      3.416782    1.200138   -1.483020
Cl     0.684755    0.000000    0.000000
H     -6.727582    0.587866   -0.098036
H     -6.123184   -1.142391   -0.309445
H     -4.969482   -0.635412    1.658228
H     -4.788842    1.147380    1.163175
H      1.981971   -3.764708   -0.717808
H      4.071648   -3.426764   -2.030442
H      3.903989    0.998846    2.746858
H      3.951338   -0.242255    1.476909
H      1.975823   -0.846855    2.367385
H      1.688698    0.747914    3.088844
H      0.288752    2.409072   -0.914604
H      0.722788    1.251202   -2.222601
H     -1.704388    1.428026   -1.176356
H     -1.046054   -0.091940   -1.858781
H     -5.298862   -0.325024   -2.319508
H     -5.290170    1.388366   -1.772230
H     -0.355329   -2.210671   -0.341496
H      0.594934   -2.574653    1.132009
H     -2.521763    1.302880    1.173255
H     -2.375463   -0.334129    1.837445
H     -3.483051   -1.389372    0.071880
H     -0.454811   -0.722427    1.984161
H      2.376894    2.800922   -0.611220
H      5.455287   -0.188713   -2.812594
H      0.817066    2.339637    2.002299
H     -0.684755    0.000000    0.000000
