20

C     -1.899246    0.228667   -0.668372
C     -0.511625    0.830013   -0.537172
C     -2.160007   -0.409787    0.656190
C      1.332812   -0.752104    0.154253
C      0.132607    0.057406    0.553166
C      2.419847    0.037796   -0.413266
N     -0.864784   -0.883184    1.058162
O      2.714067   -0.121509   -1.631690
O      3.148319    0.959023    0.320951
H     -2.641090    1.019367   -0.852130
H     -1.960459   -0.467009   -1.509890
H      0.004076    0.854568   -1.499357
H     -0.667502    1.897010   -0.247522
H     -2.457907    0.370445    1.379885
H     -2.891237   -1.224890    0.570840
H      0.986026   -1.522528   -0.566891
H      1.681671   -1.278584    1.098678
H      0.386340    0.733556    1.414783
H     -0.643772   -1.853475    0.722996
H      3.891864    1.525218   -0.129647
