20

C     -1.740910   -0.884806    0.257229
C     -0.354913   -1.447588    0.491016
C     -1.529478    0.628612    0.299162
C      0.605631   -0.303086    0.407445
C     -0.183678    0.701530   -0.433049
C      1.887729   -0.661107   -0.207209
N      0.381611    2.006786   -0.413929
O      2.185277   -1.807545   -0.633600
O      2.853330    0.328728   -0.334063
H     -2.482024   -1.230872    0.971052
H     -2.010921   -1.104204   -0.813865
H     -0.372490   -1.930971    1.507782
H     -0.100814   -2.243926   -0.268867
H     -1.342127    0.913540    1.337105
H     -2.312236    1.176003   -0.215463
H      0.789038    0.184909    1.388025
H     -0.359853    0.294265   -1.434841
H      0.333754    2.487488   -1.357659
H      0.081701    2.622193    0.350963
H      3.671372    0.270051   -0.897235
