39

C      2.882359    0.963544    1.118980
C     -0.136600   -2.585480    0.228943
C     -1.983316    0.977916    1.519929
C     -1.987347    1.970828   -0.714421
C      1.334179   -0.046464   -0.612826
C      0.228509    0.133805    0.067206
C      3.675961    0.079005   -0.972499
C     -2.545405   -2.150868    0.009368
C     -3.553582    0.189010   -0.195842
C      2.652644    0.326125   -0.174189
C     -1.319329   -1.698155   -0.068578
C     -3.663938   -1.269057   -0.283875
C      5.035067    0.422477   -0.604854
C     -2.142899    0.664206    0.036820
C     -1.105862   -0.282236   -0.459792
O     -4.753963   -1.782569   -0.622152
O      5.958796    0.146309   -1.440075
O      5.407757    1.028527    0.586141
O     -1.068810   -0.157475   -1.866938
H      3.550765    0.356908    1.782833
H      1.969109    1.186024    1.703481
H      3.352816    1.988597    0.977695
H      0.308975   -2.988022   -0.686472
H      0.564995   -1.982521    0.840773
H     -0.511600   -3.407125    0.872332
H     -2.992743    1.072007    1.997382
H     -1.472852    0.155025    2.058275
H     -1.406878    1.893435    1.698877
H     -0.969212    2.393337   -0.604033
H     -2.704166    2.690289   -0.242718
H     -2.299541    1.880544   -1.777924
H      1.189062   -0.525897   -1.593510
H      0.258747    0.589525    1.029955
H      3.508029   -0.401949   -1.950143
H     -2.715682   -3.181221    0.292441
H     -4.201658    0.593509    0.609549
H     -3.954702    0.618295   -1.151156
H      6.366294    1.131444    0.874964
H     -0.753979   -0.991652   -2.283948
