41

C     -1.990098    3.950260   -0.173206
C     -3.677127   -0.992581   -0.371237
C     -2.524649    2.942749    0.762962
C      5.666578   -0.011282   -0.457918
C      4.908560    0.825008    0.307039
C      5.075644   -0.952244   -1.257366
C      3.532422    0.749871    0.282715
C      3.702379   -1.042380   -1.287864
C      1.447043   -0.096656   -0.712932
C      0.766047   -0.586066    0.499526
C     -2.488562   -1.844884   -0.103455
C      2.959679   -0.202200   -0.535408
C     -0.807186   -0.352464    0.408965
C     -2.723588   -3.254290   -0.281887
C     -0.926534    1.079043    0.301581
N     -1.205994   -1.299265   -0.535918
O     -1.954450   -4.092070   -0.789834
O     -3.956899   -3.766752    0.168181
O     -0.154722    1.934108   -0.018261
O     -2.231355    1.615401    0.692135
H     -2.774647    4.592595   -0.647840
H     -1.400484    4.731703    0.442205
H     -1.299008    3.645843   -0.945536
H     -3.996024   -0.443151    0.513929
H     -4.584640   -1.629375   -0.658384
H     -3.512402   -0.357875   -1.285849
H     -2.499758    3.335739    1.816351
H     -3.704731    2.969585    0.582468
H      6.762805    0.108150   -0.455066
H      5.374581    1.558299    0.968205
H      5.662894   -1.616895   -1.872310
H      2.943931    1.415261    0.903132
H      3.226525   -1.809479   -1.929160
H      1.225624   -0.802634   -1.605018
H      1.267422    0.877453   -1.119189
H      1.129339   -0.118521    1.389016
H      0.851730   -1.679662    0.563649
H     -2.320322   -1.791449    1.087459
H     -1.091413   -0.733434    1.435420
H     -0.568308   -2.112290   -0.605521
H     -4.110303   -4.743168    0.301685
