30

C     -1.102629    1.644509   -0.381809
C     -2.456921   -1.717162    0.264844
C     -3.400188    0.457784   -0.106208
C      4.113369    0.519928    0.562691
C      3.069553    1.321018    0.974379
C      3.810385   -0.623478   -0.160894
C      1.742555    1.014122    0.685685
C      2.498924   -0.932334   -0.449839
C     -1.025688    0.236436    0.181257
C      1.448992   -0.118514   -0.030998
C      0.098443   -0.543109   -0.405917
N     -2.261448   -0.418914   -0.299834
O     -0.007648   -1.888135    0.007854
H     -1.211236    2.340917    0.466637
H     -0.216673    1.920730   -0.967630
H     -2.036265    1.807995   -0.992273
H     -2.189083   -2.550588   -0.443153
H     -3.546717   -1.874665    0.453863
H     -1.969968   -1.863483    1.251709
H     -4.197397   -0.164743    0.354205
H     -3.195357    1.281749    0.599312
H     -3.815785    0.817682   -1.067618
H      5.153302    0.788024    0.805776
H      3.273434    2.236358    1.550704
H      4.653934   -1.226860   -0.466410
H      0.985123    1.687384    1.050086
H      2.315071   -1.833117   -1.015809
H     -1.053389    0.294862    1.267952
H     -0.037610   -0.559800   -1.511454
H      0.560917   -2.054595    0.801709
