84

C     11.538416   -0.442027   -0.903303
C     -6.374078    2.504984   -2.196066
C     -8.214992   -1.298426    3.681439
C    -10.197829    0.513296   -0.329406
C     -2.333792   -3.314660   -1.299601
C     -0.041638   -0.117092   -4.445443
C      9.050427    0.674945   -0.386188
C      7.817197    1.254412   -0.134570
C      4.614163    2.052381    0.618422
C      3.792379    1.909103    1.911450
C     -5.714624    0.822976   -0.083597
C     -6.350766   -0.407750    1.829645
C     -0.735813    0.612573    0.645559
C      8.134400   -1.431777    0.127624
C      2.577233   -0.882335    0.030595
C      1.659084    1.280042    1.055849
C     -5.362544   -0.003142    0.945355
C      0.650278    0.184249    1.089675
C      9.228215   -0.686691   -0.257909
C      6.725254    0.498381    0.251864
C      5.420285    0.807781    0.557417
C      1.114064   -1.006589    0.315979
C      6.895053   -0.864911    0.382532
C      3.333316   -0.384638    1.262014
C     -7.033433    1.240096   -0.229478
C     -7.641249    0.001390    1.684893
C     -1.627224   -0.584719    0.474878
C      0.302326   -1.352543   -0.865084
C      4.779665   -0.369520    0.877928
C     -8.018860    0.827222    0.664695
C     -1.188533   -1.415712   -0.656349
C     -3.990897   -0.438526    1.086876
C      0.504778   -0.550449   -2.087728
N      5.699511   -1.346733    0.760528
N      2.850751    0.833450    1.791489
O     -3.706942   -1.195891    2.058653
O      1.269706    0.405556   -2.184716
O     10.470605   -1.283847   -0.510183
O     -7.350493    2.078669   -1.285851
O     -8.580327   -0.453797    2.621619
O     -9.313316    1.268862    0.476445
O     -1.496978   -2.761357   -0.333928
O     -0.216314   -0.871762   -3.257096
O     -2.956369   -0.093104    0.240850
H     12.423324   -0.991442   -1.218717
H     11.202542    0.206303   -1.768853
H     11.730968    0.276315   -0.073959
H     -5.492435    2.956744   -1.671722
H     -6.007688    1.627793   -2.756148
H     -6.837740    3.237928   -2.906852
H     -7.699846   -2.212296    3.309861
H     -9.131359   -1.550280    4.251785
H     -7.564386   -0.736732    4.382018
H    -11.185344    1.037497   -0.386666
H    -10.304554   -0.526674    0.021896
H     -9.728967    0.473008   -1.346600
H     -3.285348   -2.723112   -1.348242
H     -1.853276   -3.424543   -2.277994
H     -2.618819   -4.325227   -0.944851
H      0.890476   -0.402158   -4.977532
H     -0.125268    0.952187   -4.223660
H     -0.883380   -0.427809   -5.124477
H      9.871971    1.316861   -0.685768
H      7.653284    2.317917   -0.228137
H      3.945206    2.126222   -0.262574
H      5.244701    2.941814    0.773352
H      3.208705    2.845093    2.043623
H      4.488881    1.780944    2.745441
H     -4.965131    1.158870   -0.795336
H     -6.085607   -1.066209    2.655591
H     -1.222316    1.318770    1.337464
H     -0.631151    1.111732   -0.331815
H      8.267189   -2.488308    0.229604
H      2.880991   -0.243149   -0.782129
H      2.999847   -1.911339   -0.148868
H      1.966922    1.620672    0.067940
H      1.273424    2.205855    1.600751
H      0.519850   -0.094271    2.162363
H      1.063413   -1.888236    1.052257
H      3.253217   -1.177166    2.057864
H     -1.669695   -1.213222    1.391346
H      0.598006   -2.436200   -1.135974
H     -1.721270   -1.193229   -1.615859
H      5.550567   -2.371425    0.931798
