36

C      0.407813    3.367052   -0.796224
C      3.671418   -1.943227    0.288169
C     -3.070776   -1.601008    0.292911
C     -1.828220    2.515188   -0.191705
C      0.645850   -2.017110   -0.144179
C     -0.655838   -2.082708    0.599021
C     -2.477989    1.321853    0.410720
C     -0.510835    2.343915   -0.244152
C      2.874637   -0.927287    0.069950
C      1.436486   -0.843905    0.347545
C     -0.171245    0.988672    0.333497
C      0.946517    0.361987   -0.466916
C      3.238419    0.376487   -0.508681
C     -1.655398   -1.053535    0.175425
C     -1.439569    0.271753    0.244712
O      4.374384    0.719562   -0.898710
O      2.088306    1.149046   -0.539390
O     -1.498430   -0.415804   -1.073803
H     -0.020810    4.390723   -0.627270
H      1.400279    3.375684   -0.319420
H      0.484494    3.285170   -1.916840
H      4.728422   -1.938387    0.058790
H      3.272941   -2.846079    0.720264
H     -3.359134   -1.725212    1.353656
H     -3.047251   -2.609081   -0.171940
H     -3.800035   -1.004958   -0.283367
H     -2.398552    3.376839   -0.524341
H      1.220026   -2.936217    0.125831
H      0.534575   -2.031593   -1.235055
H     -0.428422   -1.916800    1.675602
H     -1.021627   -3.128595    0.520381
H     -2.593707    1.524757    1.487825
H     -3.445331    1.090120   -0.071554
H      1.233432   -0.668246    1.425842
H      0.214842    1.193466    1.349569
H      0.650329    0.037478   -1.466164
