86

C     -2.839714   -4.831312    0.179691
C     -5.115425   -3.979818   -0.025256
C     -2.434263    4.645136    2.190322
C     -4.096422    0.588790    2.183464
C      8.841237   -2.925693   -1.659858
C     -6.705339    2.131924   -2.251631
C     -5.453384    2.676822   -2.082943
C     -6.755180    0.785957   -2.576133
C     -4.292446    1.946610   -2.223011
C     -5.622976    0.010387   -2.727944
C      7.695557    1.528155    0.274648
C      8.890254    1.734499   -0.417703
C     -2.288190    2.461225    0.985146
C      0.201345   -0.680838    0.089921
C      7.685541   -0.754637   -0.342544
C      5.838453    0.089470    1.046163
C     -3.728860   -1.734411    1.324948
C      0.977832    1.181146    1.655674
C     -3.170734   -0.243093   -2.714352
C      2.289050    0.469075   -0.339284
C     -3.616953   -3.795908    0.096972
C     -1.816446    3.306616    1.874796
C     -3.093428   -0.456688    1.765307
C     -4.395598    0.610175   -2.546868
C      7.096360    0.294123    0.313106
C      1.039238    0.244202    0.475235
C     -1.071692   -1.103667    0.686678
C      9.461136    0.663494   -1.067974
C      8.876123   -0.579891   -1.040938
C     -1.412081    1.274924    0.968474
C      4.702830    0.335055    0.153153
C     -0.619087    2.782663    2.518368
C     -1.723934   -2.225903   -0.144533
C     -0.469078    1.354047    2.089385
C     -3.150506   -2.394165    0.121219
C     -2.834650   -0.849515   -1.340827
C     -2.122612   -0.023063    0.725079
O     10.644737    0.821508   -1.766561
O      4.889391    0.665946   -1.045335
O      0.146601    3.409840    3.289804
O     -0.672958    0.577668    3.182093
O      9.436425   -1.657290   -1.686394
O      3.371890    0.225196    0.547736
O     -1.721763   -1.637707   -1.443785
O     -3.806209   -1.781296   -0.988618
O     -2.818237    0.147368   -0.453081
H     -3.312095   -5.831540    0.156704
H     -1.776998   -4.851833    0.274194
H     -5.339529   -5.034137   -0.201807
H     -5.568452   -3.668892    0.953604
H     -5.443580   -3.305406   -0.824739
H     -3.073320    4.530836    3.097119
H     -1.637791    5.396683    2.309634
H     -3.113485    4.973121    1.378251
H     -4.851852    0.037740    2.813807
H     -3.615820    1.290931    2.893091
H     -4.659819    1.036666    1.371871
H      8.642202   -3.205246   -0.606336
H      7.862506   -2.928435   -2.192484
H      9.511893   -3.693035   -2.089599
H     -7.618573    2.704189   -2.141929
H     -5.344230    3.740200   -1.824510
H     -7.729758    0.309434   -2.719981
H     -3.298765    2.398109   -2.084606
H     -5.726470   -1.039665   -2.983066
H      7.267102    2.383307    0.776815
H      9.313152    2.726439   -0.411845
H     -3.153967    2.598429    0.372706
H      0.515027   -1.210383   -0.819721
H      7.232931   -1.750088   -0.330837
H      5.789190   -0.937922    1.489184
H      5.762919    0.838733    1.885230
H     -3.757164   -2.519299    2.138503
H     -4.807216   -1.522470    1.127538
H      1.322613    2.160062    1.260189
H      1.583812    0.811303    2.493604
H     -3.417330   -1.082560   -3.404882
H     -2.338861    0.366491   -3.081810
H      2.353934   -0.267393   -1.146502
H      2.358118    1.518699   -0.682794
H     -2.538162   -0.721013    2.716084
H     -0.931654   -1.558033    1.699208
H     -0.787288    1.415326    0.026435
H     -1.079773   -3.107824   -0.166873
H     11.086557    1.729826   -1.795552
H      0.084161   -0.038475    3.385146
