36

C     -0.355943    3.438277   -0.301885
C      3.983980   -0.994657   -0.084003
C     -2.515973   -2.355470    0.690982
C     -2.360062    2.006858    0.165790
C      1.141685   -1.734186    0.362723
C     -0.175176   -2.232924   -0.249395
C     -2.789561    0.582952    0.153093
C     -1.092718    2.126864   -0.209537
C      2.980138   -0.173200   -0.296006
C      1.560190   -0.565967   -0.460240
C     -0.563309    0.770861   -0.511341
C      0.856309    0.709420   -0.036068
C      2.991056    1.278170   -0.421573
C     -1.316630   -1.469733    0.327482
C     -1.448119   -0.125797    0.252886
O      4.006755    2.026335   -0.320599
O      1.662273    1.683188   -0.675120
O     -1.009149   -0.604160    1.461258
H     -1.098529    4.246749   -0.398782
H      0.242104    3.638536    0.588026
H      0.253533    3.462634   -1.227858
H      4.974511   -0.588239    0.019028
H      3.859058   -2.061722   -0.008532
H     -2.149014   -3.063903    1.460850
H     -2.807017   -2.955447   -0.186672
H     -3.320792   -1.766940    1.132264
H     -2.998303    2.842872    0.445461
H      0.994442   -1.457868    1.432326
H      1.900805   -2.517868    0.316188
H     -0.261722   -3.333776   -0.098878
H     -0.159456   -2.072496   -1.349528
H     -3.469102    0.321671    0.965600
H     -3.189103    0.379909   -0.862270
H      1.338159   -0.811213   -1.530539
H     -0.572786    0.609178   -1.607394
H      0.907467    0.761092    1.062266
