38

C      2.698944    0.093339   -1.318166
C      3.229101    1.245428   -0.767468
C     -2.271422    1.618448   -0.821460
C     -1.343391    0.555160   -1.428960
C     -0.209819   -1.113830    1.725487
C     -0.710712   -2.474232    1.395550
C      0.833585   -1.583692   -1.405032
C      1.477361   -0.382972   -0.859116
C      2.560560    1.945588    0.245208
C     -1.568878    2.125342    0.398220
C     -0.572273   -1.772283   -0.917666
C      0.880766    0.337946    0.122603
C      1.345456    1.480334    0.708384
C     -0.849220    1.260620    1.334647
C     -0.424813   -0.047222    0.733648
C     -1.258083   -0.543297   -0.405434
N     -0.692013   -2.849467    0.028097
O      3.111073    3.095664    0.779847
O     -1.609649    3.322071    0.604714
O     -2.549586   -0.881366   -0.031173
O      0.407980    1.892452    1.671691
H      3.182918   -0.475799   -2.101209
H      4.183733    1.618638   -1.124849
H     -3.162552    1.056156   -0.460296
H     -2.496605    2.409023   -1.535648
H     -1.734150    0.208773   -2.404500
H     -0.368121    1.071433   -1.532607
H     -0.672427   -0.761004    2.696937
H      0.872425   -1.187080    1.961970
H     -1.760099   -2.548368    1.755673
H     -0.143249   -3.242024    1.974784
H      1.391091   -2.506847   -1.118622
H      0.851223   -1.526929   -2.535382
H     -1.178186   -2.105741   -1.813929
H     -1.447892    1.132989    2.248454
H      0.066076   -3.536627   -0.181908
H      2.627672    3.584003    1.497845
H     -2.696827   -0.514627    0.879668
