34

C      0.306229    2.644716   -0.420252
C      4.630149   -0.761578    0.170688
C     -1.347312   -1.369142   -1.086567
C     -0.823328   -1.886242    1.232171
C     -3.075755    1.013482    0.410335
C     -1.986823    1.926998    0.009584
C      2.125027   -0.220360    0.238977
C      0.949804   -0.078539   -0.348782
C     -2.653747   -0.368304    0.716058
C     -0.711358    1.648645    0.003123
C      3.321294   -0.603933   -0.485580
C     -0.255565    0.315724    0.424245
C     -1.288021   -0.753171    0.304277
O      3.233950   -0.808582   -1.719252
H      0.098355    3.058503   -1.435641
H      0.352647    3.521359    0.271359
H      1.311413    2.214641   -0.457750
H      5.112961   -1.680456   -0.206550
H      5.255340    0.138236   -0.004900
H      4.491859   -0.890142    1.267606
H     -0.401656   -1.827591   -1.390254
H     -1.756175   -0.661302   -1.836164
H     -2.109549   -2.198455   -1.003255
H      0.060929   -2.367987    0.755142
H     -1.636838   -2.578227    1.461297
H     -0.424708   -1.381299    2.150203
H     -3.866259    1.079079   -0.389799
H     -3.567204    1.486935    1.309816
H     -2.284482    2.928889   -0.310626
H      2.189180   -0.041645    1.302144
H      0.903037   -0.259411   -1.403593
H     -2.783873   -0.565497    1.819453
H     -3.398301   -1.069353    0.235577
H      0.028781    0.394013    1.507474
