34

C     -2.572752    0.931520    0.271172
C     -1.474259    1.370127   -0.277739
C     -2.960311   -0.491562    0.370310
C     -0.450862    0.519407   -0.883552
C      1.358884   -1.596604   -0.559110
C      0.785772   -1.455017    0.831111
C     -4.293189   -0.694891   -0.370741
C      3.256457   -0.137396   -0.158642
C      1.928496   -0.228080   -0.863185
C      0.901406    0.663752   -0.207702
C      0.784317    0.014522    1.126071
C      3.933557    1.145467   -0.363324
O     -5.292931    0.079653    0.176716
O      0.705186    0.544594    2.210167
O      3.380154    2.020657   -1.073367
O      5.158869    1.431416    0.194642
H     -3.263054    1.706679    0.694380
H     -1.337220    2.483713   -0.266923
H     -3.176071   -0.729882    1.462323
H     -2.275278   -1.215409   -0.053792
H     -0.771453   -0.520774   -0.922664
H     -0.370505    0.838768   -1.969641
H      2.193806   -2.338991   -0.583167
H      0.623878   -1.939051   -1.311422
H     -0.205854   -1.897374    0.945977
H      1.477692   -1.978340    1.522194
H     -4.117198   -0.512585   -1.446024
H     -4.541552   -1.782188   -0.210832
H      3.870603   -0.998219   -0.517208
H      3.101285   -0.299226    0.918315
H      2.011889   -0.043567   -1.953027
H      1.223973    1.712547   -0.143159
H     -5.095259    1.024190    0.005401
H      5.501522    2.372145    0.371232
