45

C     -3.455897   -2.394381    0.774018
C      5.401990    0.133505   -0.484967
C      1.591318   -1.556206   -1.621813
C     -1.775832    1.427978   -1.021348
C     -0.494406    2.147020   -1.270430
C      2.825616   -1.039366   -1.285524
C     -0.591280   -0.436468    2.048204
C     -1.859040   -1.216137    1.994541
C     -0.899130   -1.608303   -1.272096
C      0.446915   -1.126199   -0.973718
C     -1.715021    0.398769    0.045658
C     -1.965041   -1.009780   -0.407061
C      0.229866    2.624835   -0.064191
C      2.950631   -0.068244   -0.281987
C      0.625582   -0.189272   -0.014227
C      1.817306    0.356786    0.358765
C      0.161059    1.733338    1.122766
C     -0.442808    0.400080    0.815089
N     -2.110124   -1.866218    0.752972
O     -0.294414    3.882156    0.310656
O      4.172737    0.466505    0.074968
O      1.515202    1.281865    1.382505
H     -3.410930   -3.437687    1.175812
H     -4.055439   -1.793292    1.480332
H     -3.946251   -2.343775   -0.218495
H      5.867562   -0.778239   -0.021078
H      5.274976   -0.006134   -1.571662
H      6.123588    0.992515   -0.378955
H      1.452140   -2.312151   -2.396274
H     -2.086858    0.937288   -1.966500
H     -2.561853    2.208857   -0.830922
H     -0.758243    3.068326   -1.871809
H      0.172152    1.573912   -1.978719
H      3.699512   -1.396729   -1.810620
H     -0.639181    0.235371    2.930746
H      0.309703   -1.070710    2.201675
H     -1.757097   -2.038982    2.765041
H     -2.719801   -0.611895    2.377597
H     -0.995939   -2.714407   -1.178552
H     -1.145501   -1.404521   -2.346451
H     -2.542836    0.631461    0.776420
H     -2.912721   -1.020371   -1.024937
H      1.288791    2.854094   -0.382109
H     -0.291682    2.169677    2.008939
H     -0.499323    3.915130    1.277743
