46

C     -3.836414   -2.054465    0.333981
C      5.311730   -1.137501   -0.422688
C      0.568079    4.795032   -0.009248
C      1.399236   -2.609321   -0.707600
C     -1.562231    1.069729   -1.975559
C      2.707916   -2.140218   -0.617615
C     -0.835277    2.351013   -1.969172
C     -1.119794    0.138296    1.409319
C     -2.515426   -0.309052    1.329500
C     -1.065536   -2.211984   -0.597850
C      0.349531   -1.768481   -0.480194
C     -1.368340    0.242564   -1.022841
C     -2.022555   -1.070920   -0.910217
C      2.919851   -0.800489   -0.292872
C     -0.007804    2.618281   -0.997615
C      0.632300   -0.486764   -0.169111
C      1.856733    0.061348   -0.060364
C      0.290254    1.761853    0.124051
C     -0.456980    0.495233    0.107032
N     -2.998633   -0.912923    0.138790
O      4.210190   -0.289846   -0.192904
O      0.647637    3.863423   -1.065155
O      1.688865    1.413242    0.269058
Cl     0.686164    0.000000    0.000000
H     -3.382895   -2.867254    0.899247
H     -4.791611   -1.717887    0.819305
H     -4.127663   -2.426438   -0.685409
H      6.218558   -0.482344   -0.487139
H      5.163521   -1.666332   -1.373381
H      5.419687   -1.800595    0.453909
H     -0.492551    5.067431    0.147656
H      1.102971    5.709829   -0.356228
H      1.033148    4.389384    0.895948
H      1.259380   -3.669112   -0.965795
H     -2.263344    0.865544   -2.821036
H      3.550858   -2.799618   -0.795650
H     -1.025252    3.040887   -2.800358
H     -0.471377   -0.593521    1.931218
H     -1.048628    1.073456    2.044472
H     -3.197993    0.545004    1.570671
H     -2.700838   -1.045917    2.167263
H     -1.197192   -3.023492   -1.325069
H     -1.349522   -2.617046    0.394820
H     -2.550701   -1.287168   -1.848839
H      0.058112    2.287136    1.088338
H     -0.686164    0.000000    0.000000
