99

C     11.206442    4.109104   -0.767018
C     -7.730100    4.522035    1.626275
C     11.087600    3.673910    0.685264
C     -7.675825    3.605406    0.408326
C      9.645016    3.443251    1.063604
C     -9.046423    3.051441    0.055102
C      8.986103    2.387652    0.228134
C     -9.557517    2.237930    1.175232
C      7.549114    2.257409    0.723468
C     -8.781779    1.016932    1.521864
C      6.903127    1.204574   -0.131251
C     -8.734902   -0.111676    0.604053
C      5.464625    1.030292    0.291563
C     -8.227612   -0.115480   -0.750404
C      5.299985    0.587594    1.700803
C     -6.819299    0.225943   -1.046386
C      5.925004   -0.662675    2.124314
C     -5.787113   -0.635080   -0.356449
C      5.618730   -1.975430    1.561159
C     -5.953385   -2.064130   -0.741758
C      4.260572   -2.549286    1.674954
C     -4.961997   -2.980134   -0.093326
C      3.161075   -1.868565    0.961105
C     -3.525628   -2.690264   -0.412755
C      3.440894   -1.947140   -0.549925
C     -3.194449   -2.795760   -1.859197
C      2.389056   -1.232372   -1.322185
C     -1.734748   -2.476354   -2.075496
C      0.993278   -1.694554   -1.160447
C     -0.816090   -3.394069   -1.327582
C      0.660841   -3.077280   -1.572888
C     -1.122762   -4.791119   -1.720816
O      1.462594   -4.078506   -1.078378
O     -1.485543   -5.640940   -0.857425
O     -1.020530   -5.197316   -3.031325
H     10.426696    4.801308   -1.084663
H     11.150620    3.188791   -1.415026
H     12.184691    4.586181   -0.961789
H     -6.950491    4.192469    2.318040
H     -8.704521    4.575732    2.103177
H     -7.509194    5.551893    1.233831
H     11.631437    2.730624    0.841900
H     11.451158    4.509194    1.292864
H     -7.296324    4.127406   -0.489034
H     -7.011130    2.750582    0.602599
H      9.050220    4.378114    1.085983
H      9.654950    3.040099    2.116050
H     -9.758085    3.936452   -0.090852
H     -8.962798    2.605571   -0.923425
H      8.953268    2.585604   -0.843116
H      9.479530    1.406152    0.399555
H     -9.683333    2.820678    2.123148
H    -10.605720    1.865892    0.900984
H      7.030869    3.229206    0.606120
H      7.574092    2.028108    1.803709
H     -7.766131    1.385984    1.852433
H     -9.217335    0.679474    2.536310
H      7.450917    0.238666   -0.097555
H      6.869714    1.556016   -1.197302
H     -8.325407   -1.000899    1.221819
H     -9.838644   -0.476965    0.520062
H      4.844880    0.557959   -0.463217
H      5.068661    2.119412    0.292325
H     -8.333373   -1.213348   -1.130505
H     -8.888488    0.425767   -1.472510
H      4.231025    0.742813    1.985702
H      5.802194    1.416071    2.325968
H     -6.551757    1.294281   -1.067349
H     -6.682699   -0.064128   -2.157574
H      5.694650   -0.751353    3.256237
H      7.057526   -0.510512    2.183243
H     -5.727606   -0.459434    0.731072
H     -4.793465   -0.302344   -0.778685
H      5.951743   -2.097087    0.489418
H      6.305752   -2.734055    2.090264
H     -5.960656   -2.134304   -1.839395
H     -6.965200   -2.455807   -0.421229
H      3.942296   -2.661920    2.753313
H      4.296672   -3.609559    1.241534
H     -5.161575   -4.048560   -0.358665
H     -5.045230   -2.955543    1.022622
H      2.228353   -2.518240    1.160148
H      2.850307   -0.886939    1.286222
H     -2.948639   -3.519046    0.104707
H     -3.187574   -1.768566    0.068028
H      3.390473   -3.043193   -0.769061
H      4.464519   -1.656943   -0.811097
H     -3.448561   -3.823109   -2.203315
H     -3.777976   -2.103306   -2.501220
H      2.414824   -0.155846   -0.974886
H      2.650964   -1.286727   -2.403576
H     -1.600105   -1.413306   -1.756597
H     -1.451727   -2.553720   -3.153206
H      0.346633   -0.934958   -1.705654
H      0.624766   -1.580933   -0.091212
H     -1.037895   -3.267741   -0.227530
H      0.783166   -3.122273   -2.697642
H      0.887528   -4.813775   -0.707052
H     -1.431810   -6.076266   -3.305657
