45

C     -3.317382   -2.180347    0.050830
C      5.398279   -0.724274    0.180170
C      1.545629   -1.919487    1.243856
C     -2.082097    2.022308    0.423406
C     -1.449009    3.090307   -0.127111
C      2.840731   -1.518397    0.885970
C     -1.146322   -0.257583   -1.598606
C     -2.638045   -0.328604   -1.322154
C     -0.930280   -1.574670    1.173806
C      0.446794   -1.242581    0.781039
C     -1.252162    0.846892    0.627720
C     -1.925639   -0.441707    0.971192
C      0.003241    3.038470   -0.492870
C      3.015545   -0.418956    0.051925
C      0.722923   -0.185769   -0.029666
C      1.923572    0.288214   -0.433315
C      0.303980    1.743082   -1.201436
C     -0.408809    0.586655   -0.607485
N     -2.941430   -0.803917    0.004340
O      0.788347    3.181568    0.647053
O      4.283094   -0.009249   -0.310014
O      1.704555    1.412053   -1.256153
Br     0.761972    0.000000    0.000000
H     -2.784340   -2.817950   -0.680092
H     -4.405740   -2.244051   -0.242827
H     -3.264963   -2.545222    1.085942
H      6.355243   -0.221312   -0.052703
H      5.304699   -0.717616    1.294744
H      5.362110   -1.771778   -0.144413
H      1.470715   -2.770818    1.888729
H     -3.123955    2.118842    0.662748
H     -1.998676    3.984863   -0.301318
H      3.707467   -2.068640    1.261849
H     -0.789358   -1.323325   -1.604460
H     -1.041888    0.103424   -2.642461
H     -3.132066    0.645825   -1.532730
H     -3.061612   -1.057600   -2.043671
H     -0.912662   -1.826601    2.252739
H     -1.268768   -2.506195    0.652460
H     -0.534709    1.083076    1.458996
H     -2.472985   -0.275083    1.927444
H      0.203095    3.910755   -1.141515
H     -0.002854    1.845887   -2.264516
H      1.505731    3.849511    0.502556
H     -0.761972    0.000000    0.000000
