58

C     -1.661562   -3.341586   -0.858757
C     -1.826803   -3.037113    0.623645
C     -1.018410   -2.160619   -1.585565
C     -1.744558    2.344355   -1.712780
C     -2.885051    2.899542   -1.138908
C      4.986957    0.300442    0.011015
C     -2.182719   -1.580654    0.844433
C     -0.170015   -0.266434    1.545431
C      1.160516    0.221195    1.155090
C      5.849490    0.735648    1.018009
C      0.046651    0.697622   -1.902171
C     -2.813703    1.112307    0.437411
C      2.575335    0.931343   -0.659332
C      3.990529    1.844477    1.222310
C      3.811253    1.008097    0.147624
C     -1.153072    1.198252   -1.220935
C     -3.409997    2.247191   -0.039558
C     -0.225629   -1.411353   -0.577009
C     -1.679724    0.565128   -0.137617
C      0.737347   -0.413896   -1.161921
C     -1.080695   -0.656247    0.416833
N      1.628181   -0.016569   -0.139423
O     -4.562269    2.798370    0.549191
O      5.195303    1.633903    1.679320
C     -1.199834   -0.083046   -0.083367
O      1.227644    1.228701    0.280880
O      0.805930   -1.113047    1.314550
O      1.146214   -0.980613   -1.132218
S      0.568760   -0.309584    0.084986
H     -0.990799   -4.223384   -0.924618
H     -2.618073   -3.614692   -1.329298
H     -2.690551   -3.638896    0.972834
H     -0.933589   -3.303068    1.201676
H     -0.340971   -2.582931   -2.334086
H     -1.843273   -1.568876   -2.032805
H     -1.357881    2.881517   -2.574677
H     -3.349734    3.800356   -1.525684
H      5.227700   -0.454907   -0.725192
H     -3.088588   -1.382861    0.233028
H     -2.471317   -1.462158    1.899038
H     -0.710061    0.485004    2.158258
H     -0.094193   -1.174772    2.213424
H      1.216268    1.332966    1.355691
H      1.913479   -0.203301    1.886681
H      6.857193    0.370498    1.180974
H     -0.245403    0.344679   -2.933910
H      0.725307    1.553636   -2.077282
H     -3.264257    0.639113    1.301206
H      2.884257    0.667360   -1.696044
H      2.086391    1.930257   -0.623441
H      3.297970    2.569011    1.659733
H      0.376909   -2.135961    0.010645
H      1.335009   -0.978680   -1.937856
H     -5.489148    2.496689    0.217549
H     -1.438333    0.601973   -0.932800
H     -1.519806    0.372998    0.892115
H     -1.703815   -1.037865   -0.292138
H      2.113238    1.320481   -0.132008
