48

C      5.777691    0.156813    0.276186
C     -1.160048    1.623140    2.480835
C     -2.490215    1.525559    2.885841
C     -2.025400    1.395211   -2.449015
C     -0.655731    1.281531   -1.856567
C     -1.063411   -2.020147   -0.025906
C      0.400756   -2.322157   -0.100502
C      2.637039   -1.573435   -0.054433
C      3.612558   -0.458160    0.173693
C      0.600577    0.991990    0.828754
C     -0.758181    0.929568    1.363972
C     -3.408131    0.740333    2.176433
C     -3.032793    0.769551   -1.554710
C      0.862116    0.046092   -0.330752
C     -1.683818    0.186644    0.720424
C     -3.006285    0.048328    1.062372
C     -2.814217   -0.619559   -1.095033
C     -1.435259   -0.654207   -0.473522
C     -0.342398   -0.068869   -1.274568
N      1.269773   -1.222948    0.062148
O     -4.728375    0.648908    2.583437
O     -3.997032    1.435061   -1.240426
O      0.031542   -0.928577   -2.293824
O      4.931847   -0.935131    0.050393
O     -3.591947   -0.808840    0.111699
H      5.605066    0.578321    1.308116
H      5.578251    0.965075   -0.432934
H      6.835146   -0.201521    0.235719
H     -0.448479    2.247226    3.047947
H     -2.856613    2.055218    3.762291
H     -2.078532    0.971992   -3.475386
H     -2.224658    2.494545   -2.586154
H     -0.452023    2.123417   -1.154535
H      0.071436    1.436412   -2.707153
H     -1.628126   -2.742905   -0.688827
H     -1.486060   -2.187984    0.986420
H      0.623795   -3.070334    0.693689
H      0.601327   -2.830882   -1.064490
H      2.858693   -1.944488   -1.107890
H      2.878246   -2.453395    0.623293
H      3.538641   -0.055640    1.205852
H      3.481490    0.394552   -0.516903
H      1.294179    0.665786    1.660164
H      0.914027    2.032696    0.602927
H      1.621185    0.545841   -0.964759
H     -2.998414   -1.391809   -1.836453
H     -5.010075    1.162535    3.404190
H     -0.649160   -0.961357   -3.022048
