47

C      0.786341    3.890974    1.334995
C     -4.789782   -1.464501   -0.248877
C     -0.476300    0.509375    1.787769
C     -0.608037    1.989807    1.834966
C      1.887000    1.710913   -0.251195
C      3.294558   -0.291333   -0.134777
C     -1.302187    1.087398   -1.635304
C      1.252245   -1.941036    0.440632
C     -1.414967   -1.128750    0.159569
C      4.327069   -3.795031   -0.135208
C      2.006538    0.254460   -0.032220
C      0.987934   -0.599560    0.259775
C     -0.480245    1.055133   -0.605176
C      0.477461    2.180158   -0.335301
C     -2.258015   -0.053255   -1.882875
C      3.550339   -1.633819    0.047362
C      2.505265   -2.482691    0.342577
C     -2.660044   -0.605302   -0.491101
C     -0.399087   -0.049651    0.378232
N      0.072683    2.760951    0.887654
O     -1.734875   -1.025592   -2.690938
O     -3.517668   -1.675879   -0.771954
O      4.688402   -2.433782    0.008887
O      3.027378   -3.775974    0.476859
H      1.765113    3.691521    1.800586
H      0.113596    4.487006    2.011537
H      1.003131    4.545118    0.440200
H     -4.806015   -1.342034    0.831295
H     -5.406687   -2.329514   -0.556466
H     -5.273509   -0.559194   -0.698501
H      0.372210    0.201040    2.431287
H     -1.383886    0.070723    2.253445
H     -1.704135    2.260606    1.805199
H     -0.285900    2.317997    2.867448
H      2.421573    2.006504   -1.194501
H      2.438615    2.211463    0.569107
H      4.134112    0.349406   -0.365195
H     -1.304022    1.914153   -2.304448
H      0.437714   -2.595156    0.672231
H     -0.988094   -1.864474   -0.558538
H     -1.635904   -1.584075    1.142068
H      5.006990   -4.476124    0.400915
H      4.257448   -3.999328   -1.221796
H      0.349988    2.924847   -1.153804
H     -3.184700    0.379125   -2.302064
H     -3.201660    0.146356    0.077125
H     -2.347984   -1.238975   -3.464692
