55

C      3.749073   -0.697152    2.815069
C      3.932800    0.487020   -1.953663
C      2.774932    0.137380    2.482718
C      3.006372    1.096963   -1.242023
C     -2.274523   -2.710940    0.585439
C     -2.750480   -1.753309    1.630183
C     -1.328869   -2.082053   -0.416069
C     -1.081909    0.991529   -3.103541
C     -2.177114    1.771449   -3.356892
C     -2.658692   -0.308218    1.274007
C     -0.752591    1.232950    1.287292
C      1.570126   -0.360183    1.782047
C      2.700688    0.727411    0.124491
C      0.604960    1.480781    0.752608
C      0.373163   -0.369078   -1.722929
C     -2.830099    1.475907   -1.068313
C     -0.861744    0.460400   -1.852032
C     -3.060821    2.017803   -2.332819
C     -0.520566   -1.081115    0.378153
C     -1.727378    0.692357   -0.819500
C      0.762619   -0.668234   -0.341106
C     -1.471085    0.117065    0.513546
N      1.393836    0.299812    0.461747
O     -4.164742    2.811481   -2.612242
Br     0.765831    0.000000    0.000000
H      3.688518   -1.758092    2.583718
H      4.623653   -0.343081    3.322327
H      4.496845   -0.317446   -1.528245
H      4.131276    0.791241   -2.968349
H      2.917603    1.181221    2.752226
H      2.453580    1.916727   -1.721130
H     -1.727065   -3.564921    1.036548
H     -3.104121   -3.152625   -0.004324
H     -2.203207   -1.985006    2.569869
H     -3.814457   -1.991189    1.848166
H     -1.975538   -1.611252   -1.185436
H     -0.694368   -2.886188   -0.837270
H     -0.401895    0.815436   -3.934605
H     -2.358587    2.200543   -4.360767
H     -2.730421    0.278418    2.212135
H     -3.582024   -0.012346    0.691584
H     -0.843289    1.111488    2.379782
H     -1.369669    2.153221    1.057831
H      0.714064   -0.180090    2.444069
H      1.694053   -1.452172    1.638443
H      2.925374    1.634318    0.763449
H      3.472647   -0.022214    0.474732
H      0.583810    2.133107   -0.141769
H      1.184181    2.047085    1.534477
H      1.136984    0.002199   -2.402568
H      0.067075   -1.363435   -2.180475
H     -3.572933    1.723563   -0.324212
H     -0.318300   -1.537340    1.351741
H      1.398250   -1.581193   -0.338117
H     -0.765831    0.000000    0.000000
