68

C      7.099932   -1.837656   -1.778980
C      7.731209   -1.297268    0.430453
C      8.360555   -2.281595   -2.091964
C      9.005325   -1.734710    0.148970
C      1.381804    1.549310   -1.373393
C      1.551818    0.359527    0.622744
C      4.708246   -1.219397    0.887340
C     -4.560727    0.651277    1.800925
C     -5.866381   -2.215847   -2.147242
C     -6.552982    0.111344   -1.629907
C      6.740446   -1.342380   -0.545929
C      9.319418   -2.222865   -1.100276
C      0.785826    1.159554   -0.189303
C      5.380713   -0.881763   -0.265528
C      2.681883    1.173001   -1.756019
C      2.835472   -0.027804    0.273249
C     -3.142635    0.219424    1.919248
C      3.405408    0.371453   -0.906719
C      4.690357   -0.065699   -1.167893
C     -2.629737    0.573843    3.289820
C     -2.060927    1.955832    3.376660
C     -1.621567    2.482679    2.023893
C     -4.295933   -0.507550   -1.294930
C     -1.174333    1.259688    1.224991
C     -4.786296    0.671097   -0.466437
C     -5.473561   -0.764457   -2.218119
O     -7.032336   -2.413813   -2.899362
O     10.619622   -2.655971   -1.346246
O      3.178152    1.613724   -2.950412
O      5.272256    0.249689   -2.207170
O     -1.759760   -0.417717    3.727100
O     -2.908654    2.860715    3.988947
O     -0.554533    3.358493    2.222031
O     -3.187906   -0.069449   -2.016741
O     -5.226274   -0.348327   -3.517719
O      3.486929   -0.790752    1.111969
O     -5.246200    0.194009    0.727219
O     -5.834789    1.224727   -1.223572
O     -0.492026    1.589074    0.079823
O     -2.355231    0.595760    0.893137
H      6.342083   -1.878107   -2.544413
H      7.434582   -0.903333    1.402065
H      8.595694   -2.668736   -3.094533
H      9.779236   -1.693284    0.930825
H      0.819032    2.180028   -2.047007
H      1.142551    0.021794    1.561586
H      5.231495   -1.852004    1.596588
H     -5.054255    0.382044    2.780350
H     -4.535380    1.790474    1.846022
H     -5.061493   -2.809002   -2.660154
H     -6.005227   -2.488060   -1.099236
H     -7.329688    0.400070   -2.352104
H     -6.991127   -0.349572   -0.711879
H     -3.159871   -0.919578    1.911308
H     -3.513508    0.541201    3.987440
H     -1.128660    1.888908    3.993073
H     -2.459789    2.937300    1.476981
H     -4.051890   -1.378814   -0.684535
H     -0.658781    0.615838    1.954578
H     -3.975354    1.391061   -0.320892
H     -7.815074   -2.257605   -2.299548
H     11.255506   -1.933314   -1.698634
H      4.034710    1.445749   -3.345784
H     -1.935179   -1.278414    3.294439
H     -2.805530    3.766317    3.566456
H     -0.067110    3.475333    1.351624
H     -3.448479    0.678821   -2.609917
H     -6.111076   -0.234314   -3.968087
