39

C     -2.839872   -0.852686   -1.335302
C      2.439473    1.212679   -0.166401
C      2.684279   -1.101621   -0.874912
C     -2.627248    0.577414    1.183976
C      0.535349   -1.399173    1.714762
C     -0.536634    1.393461   -1.911485
C     -0.615261    1.941497   -0.510730
C      1.679376   -0.516061    1.372629
C     -0.855058   -1.206152    1.442559
C     -1.719307   -0.405064   -0.824584
C     -0.439347   -0.086075   -1.625999
C     -0.264714    0.780536    0.380085
C      0.439177   -0.255733   -0.516037
C      1.782112   -0.149682   -0.132880
C     -1.446572   -0.112577    0.621434
H     -2.891922   -1.018735   -2.405066
H     -3.678769   -1.043209   -0.676458
H      2.227817    1.762379    0.770076
H      3.556098    1.054750   -0.182210
H      2.211784    1.783555   -1.079430
H      3.517812   -1.466587   -0.250845
H      2.110615   -1.976853   -1.283645
H      3.115101   -0.567124   -1.743383
H     -3.222698    1.046566    0.372481
H     -3.290861   -0.168197    1.661568
H     -2.379365    1.359846    1.936775
H      0.702665   -1.572395    2.832491
H      0.835459   -2.438242    1.336622
H     -1.483209    1.578063   -2.444524
H      0.280336    1.791707   -2.504365
H     -1.659416    2.244403   -0.283724
H      0.035209    2.812245   -0.337068
H      1.886079    0.327764    2.030551
H      2.610782   -1.150818    1.522625
H     -1.337424   -2.149557    1.023814
H     -1.432445   -1.107822    2.422721
H     -0.373884   -0.715797   -2.504899
H      0.248955    1.136802    1.223862
H      0.195528   -1.343507   -0.255085
