49

C     -2.160201    1.386428   -0.198023
C      5.862636    1.392358   -1.904970
C      5.587862   -1.863541    1.708966
C     -7.165715    0.141072   -0.618776
C     -6.803373   -0.505034    0.541402
C     -6.177898    0.471729   -1.516954
C     -5.486776   -0.801534    0.776843
C     -4.832763    0.173170   -1.286744
C      0.004278   -0.754920    0.713344
C      0.722354    0.422239    1.258844
C      1.731803    1.793284   -0.636153
C     -2.007111   -0.048194   -0.541044
C     -4.464144   -0.467610   -0.136130
C      3.032234    0.385285    0.351594
C     -3.097409   -0.845959    0.178539
C      3.791459    1.022375   -0.647618
C      3.647615   -0.555486    1.108651
C      5.631160   -0.210342   -0.085147
N     -0.745459   -0.644477   -0.438471
N      2.939386    1.869919   -1.213831
N      5.086243    0.732363   -0.872746
N      4.963513   -0.856178    0.886218
N      1.756971    0.888039    0.330230
O     -2.786243   -0.853432    1.528229
O      3.041580   -1.190524    2.043130
O      6.859758   -0.507367   -0.276942
H     -2.076851    1.590641    0.902537
H     -3.209235    1.766796   -0.412254
H     -1.425071    2.045013   -0.691401
H      6.191550    0.690813   -2.715026
H      5.267235    2.163695   -2.404800
H      6.804546    1.747067   -1.440268
H      6.683448   -1.875219    1.497240
H      5.192646   -2.877959    1.537784
H      5.479369   -1.605632    2.765845
H     -8.209498    0.397065   -0.842461
H     -7.602857   -0.759621    1.237254
H     -6.434829    0.983870   -2.446281
H     -5.209178   -1.307061    1.687420
H     -4.132181    0.448270   -2.040841
H      0.830418   -1.529611    0.499668
H     -0.532822   -1.266873    1.566951
H      0.135848    1.308803    1.498635
H      1.173955    0.102677    2.243031
H      0.836734    2.373060   -0.886628
H     -2.307353   -0.156546   -1.639549
H     -2.987700   -1.929942   -0.155706
H     -0.429593   -1.193303   -1.271183
H     -2.970339   -1.689663    1.983846
