55

C     -0.644801    4.649512    0.317087
C      4.746365   -0.147488   -2.654262
C      2.913975   -3.269139    1.540516
C     -1.602749   -3.566652    1.769341
C     -3.657561   -2.318238   -2.091554
C     -0.367560    1.384661    2.056016
C     -0.829420    2.799886    1.804011
C      2.332385    0.522060   -1.413251
C      0.449916    2.047514   -1.340920
C      1.338228   -0.975580    0.686737
C     -1.401788   -0.762913    1.382542
C      1.120775    0.859801   -0.791954
C      0.621244    0.117049    0.254334
C      3.039563   -0.575586   -0.969013
C      2.537125   -1.316142    0.077698
C     -1.781940   -1.645119    0.256477
C     -0.793170    2.422217   -0.573187
C     -1.898116   -1.168760   -0.955510
C     -1.663664    0.222315   -1.247791
C     -0.655084    0.464176    0.917781
C     -1.512112    1.184174   -0.137630
N     -0.415258    3.255312    0.518690
O     -1.594586    0.578374   -2.464875
O     -2.750879    1.465104    0.398984
O      4.239033   -0.923757   -1.571757
O      3.250007   -2.399345    0.504778
O     -2.014124   -3.013718    0.534136
O     -2.264077   -2.095267   -1.948353
H     -0.547576    4.898599   -0.751808
H      0.137756    5.208657    0.898351
H     -1.613297    5.010693    0.690382
H      5.069391    0.834072   -2.307890
H      3.927047   -0.059338   -3.411386
H      5.571455   -0.668584   -3.171176
H      3.240679   -2.891612    2.551388
H      3.520385   -4.208948    1.385974
H      1.867102   -3.594045    1.549214
H     -1.890776   -4.637307    1.749408
H     -2.117114   -3.029854    2.603736
H     -0.508833   -3.437744    1.848327
H     -3.852489   -3.061139   -2.894782
H     -4.183949   -1.381016   -2.416672
H     -4.093861   -2.603423   -1.117579
H     -0.906460    1.012150    2.952386
H      0.720709    1.379348    2.332275
H     -0.293376    3.435809    2.567828
H     -1.907372    2.938646    2.019308
H      2.730548    1.099682   -2.234299
H      1.173301    2.907007   -1.213783
H      0.269422    1.975932   -2.432607
H      1.039348   -1.623970    1.497994
H     -2.333943   -0.390920    1.905532
H     -0.849138   -1.375338    2.115084
H     -1.490421    2.964012   -1.268073
H     -3.420267    1.504179   -0.306204
