47

C     -2.996716   -2.769041    0.240459
C      5.606655    0.011717   -0.088772
C     -1.463826    2.763077   -1.054966
C     -1.385700    2.865604    0.447936
C     -1.579549    1.356129   -1.542890
C      1.893634   -1.473378   -1.517455
C      3.123613   -1.006958   -1.069730
C     -0.189126    2.017336    0.884052
C     -0.766569   -0.240235    1.797960
C     -1.978897   -1.112737    1.628579
C     -0.551026   -1.525743   -1.532002
C      1.982376    0.489915    0.443938
C      0.714340   -0.971190   -0.997622
C      3.159288   -0.031990   -0.095573
C     -1.635509    0.413015   -0.373808
C      0.784695   -0.002358   -0.030160
C     -1.756160   -1.029462   -0.771299
C     -0.457898    0.559986    0.550540
N     -1.932104   -1.835612    0.397654
O      4.359586    0.459306    0.377490
Br     0.767318    0.000000    0.000000
H     -3.184437   -3.340664    1.166685
H     -2.704298   -3.498103   -0.556761
H     -3.955768   -2.331731   -0.088287
H      6.400574    0.582124    0.419260
H      5.742947   -1.069108    0.134852
H      5.693260    0.150672   -1.194824
H     -0.521383    3.244510   -1.444772
H     -2.282741    3.430603   -1.399385
H     -2.302142    2.544699    0.962850
H     -1.160398    3.920690    0.706821
H     -0.785642    1.110244   -2.266036
H     -2.558813    1.270214   -2.078026
H      1.921867   -2.241708   -2.285961
H      4.063150   -1.378573   -1.455382
H      0.030811    2.171621    1.954559
H      0.673687    2.422966    0.284782
H      0.098531   -0.833362    2.150908
H     -0.998094    0.493950    2.603983
H     -1.931512   -1.878174    2.455025
H     -2.901698   -0.546374    1.804683
H     -0.637735   -1.337631   -2.625077
H     -0.512959   -2.628425   -1.405475
H      2.064689    1.253062    1.206093
H     -2.552306    0.668325    0.204008
H     -2.630697   -1.117207   -1.449329
H     -0.767318    0.000000    0.000000
