46

C     -2.609674   -0.423271   -1.346217
C      5.934400    1.515953   -1.193855
C     -6.918911    1.310002    0.601801
C     -6.102355    2.406249    0.703131
C     -6.350460    0.064841    0.563162
C      5.577712   -2.747946    1.077749
C     -4.737157    2.238127    0.763873
C     -4.965894   -0.100095    0.624980
C      4.198696   -2.659761    1.069536
C      6.355271   -1.743633    0.523231
C      1.558359   -0.238508   -0.130852
C      0.049654   -0.364116   -0.015881
C      4.398078   -0.566334   -0.046718
C     -2.019264    0.737242   -0.548915
C     -4.126276    0.988071    0.727064
C      3.624855   -1.554675    0.499382
C      5.772295   -0.634617   -0.048840
C      2.184113   -1.438194    0.478252
C     -2.652428    0.832446    0.796083
N     -0.610459    0.771029   -0.583538
O      1.427605   -2.336401    0.968645
O     -2.322994   -0.188486    1.674426
O      6.531021    0.380963   -0.608587
H     -3.683842   -0.143762   -1.508156
H     -2.493493   -1.388353   -0.833942
H     -2.153866   -0.457915   -2.355343
H      5.450721    1.208410   -2.141886
H      6.755200    2.254903   -1.348318
H      5.155692    1.951631   -0.532189
H     -8.002262    1.409486    0.552421
H     -6.515642    3.397046    0.735564
H     -6.999507   -0.800137    0.483222
H      6.012605   -3.622308    1.529645
H     -4.046479    3.083808    0.844798
H     -4.536800   -1.091696    0.592977
H      3.610921   -3.454639    1.507971
H      7.452162   -1.821775    0.533537
H      1.928594    0.633391    0.448153
H      1.899967   -0.090548   -1.174031
H     -0.149099   -0.467920    1.062984
H     -0.286073   -1.261531   -0.591101
H      3.948151    0.313262   -0.501368
H     -2.376704    1.651020   -1.122687
H     -2.289071    1.808912    1.247232
H     -0.220541    1.686208   -0.340444
H     -2.656821   -1.046377    1.371973
