53

C      3.829580    0.025669   -1.616697
C      4.932996   -0.876071    0.352011
C     -1.791650   -2.871198    0.732512
C     -2.009666   -2.069511    1.989836
C     -1.090386   -2.070070   -0.349190
C     -1.877684    1.803188   -2.371588
C     -3.022003    2.456775   -2.018043
C     -2.264512   -0.604875    1.706715
C     -0.291586    0.931086    1.721985
C      0.842814    1.517311    0.941973
C     -0.034994    0.287195   -1.777114
C     -2.934297    1.536130    0.155159
C      2.735421    0.252334    0.545270
C      3.555322   -0.673162   -0.302530
C     -1.259137    0.995880   -1.415234
C     -3.572271    2.341396   -0.762139
C     -0.253430   -1.032779    0.316836
C     -1.783008    0.859979   -0.153418
C      0.690017   -0.329726   -0.608422
C     -1.164672    0.019287    0.897723
N      1.483613    0.652364    0.032018
O     -4.748906    3.023937   -0.425194
Br     0.765221    0.000000    0.000000
H      3.010004    0.718613   -1.910898
H      4.725797    0.668570   -1.489883
H      4.080922   -0.691390   -2.422897
H      4.847600   -1.047369    1.427176
H      5.601061   -0.032858    0.075593
H      5.379792   -1.783273   -0.106344
H     -1.075555   -3.694994    1.006309
H     -2.700872   -3.367083    0.361721
H     -2.930993   -2.455337    2.485980
H     -1.187788   -2.172257    2.715985
H     -1.896942   -1.546355   -0.921121
H     -0.512134   -2.759490   -1.000253
H     -1.450361    1.898856   -3.362115
H     -3.529138    3.097246   -2.747928
H     -3.248724   -0.571142    1.158589
H     -2.420354   -0.092955    2.655596
H     -0.926347    1.710422    2.187953
H      0.136009    0.325961    2.546907
H      0.412340    2.376624    0.353211
H      1.598888    1.979683    1.609466
H     -0.206298   -0.466898   -2.594556
H      0.657743    1.038481   -2.225437
H     -3.392047    1.463485    1.141144
H      2.593140   -0.277681    1.534574
H      3.318682    1.163184    0.810337
H      3.144872   -1.676609   -0.402753
H      0.350694   -1.442412    1.157909
H      1.305135   -1.156984   -1.076474
H     -5.656685    2.618827   -0.560259
H     -0.765221    0.000000    0.000000
