51

C     -1.867543   -1.924703   -1.990572
C     -2.273128   -2.346088   -0.593233
C      3.544904   -1.560441    0.360432
C     -1.001983   -0.657119   -1.928282
C     -0.986036    3.320944   -0.599642
C     -2.244823    3.859379   -0.407331
C     -2.582296   -1.123869    0.274353
C     -0.685819   -0.436893    1.792412
C      2.902209   -0.290158    0.839097
C      0.735558   -0.989684    1.647745
C      5.055590   -1.342876    0.560992
C      0.718150    1.584349   -0.574371
C     -2.944986    1.684541    0.380474
C     -0.675530    2.006272   -0.322011
C     -3.198344    3.000147    0.087847
C     -0.357343   -0.686490   -0.581149
C     -1.669605    1.192318    0.169833
C      0.923416    0.112361   -0.484443
C     -1.362815   -0.243580    0.466895
N      1.510992   -0.188921    0.779785
O      5.360899   -0.211724   -0.232066
O     -4.468170    3.524548    0.288604
Cl     0.683795    0.000000    0.000000
H     -1.202035   -2.708081   -2.417743
H     -2.764351   -1.743810   -2.594107
H     -3.266952   -2.868831   -0.691527
H     -1.603225   -3.055321   -0.113320
H      3.274084   -2.451520    0.947561
H      3.433344   -1.761888   -0.712387
H     -0.323130   -0.586700   -2.774367
H     -1.747001    0.185877   -1.925852
H     -0.206725    3.990883   -0.994337
H     -2.430524    4.911483   -0.647374
H     -3.381222   -0.582815   -0.307069
H     -3.018961   -1.497521    1.205261
H     -0.650757    0.529655    2.335938
H     -1.244139   -1.172272    2.405386
H      3.404408    0.575003    0.361230
H      3.206537   -0.212800    1.928423
H      1.163660   -0.873845    2.687574
H      0.740309   -2.073596    1.463784
H      5.574007   -2.196708    0.079949
H      5.316290   -1.203919    1.613614
H      1.340556    2.113710    0.205847
H      1.043609    2.037922   -1.542381
H     -3.750344    1.079896    0.766782
H     -0.074825   -1.739286   -0.361894
H      1.541635   -0.196357   -1.354254
H      6.306544   -0.238726   -0.528689
H     -5.114087    3.457255   -0.505400
H     -0.683795    0.000000    0.000000
