62

C      6.445653    1.216262   -2.173035
C     -2.853507    2.498107   -1.858140
C     -3.618312    1.233404   -2.136425
C     -1.934992    2.405609   -0.685655
C     -3.564292    0.313667    2.659465
C      3.201046    0.055846    0.146733
C     -4.806071   -0.265232    2.562677
C      4.279803    0.432286   -0.619583
C     -2.760648    0.005189   -2.104565
C     -1.205644   -1.326202   -0.789006
C      0.246440   -0.949782   -0.584506
C     -1.354649    1.033302    1.826035
C      4.244586   -1.988931    0.699424
C     -4.300690   -0.744549    0.276180
C      0.718590   -0.889273    1.694210
C     -2.681852    0.370163    1.573514
C      3.138840   -1.132661    0.816719
C     -5.171023   -0.800478    1.346288
C     -1.186449    1.098137   -0.629352
C     -3.037257   -0.157754    0.367220
C     -0.433750    0.987557    0.679979
C      5.321491   -1.619891   -0.061201
C      2.012006   -1.590307    1.613615
C      5.346987   -0.425124   -0.716601
C     -2.106952   -0.094402   -0.763687
N      0.463092   -0.113077    0.571163
N      6.437480   -2.486382   -0.177319
O     -6.418791   -1.396777    1.201223
O      2.183267   -2.673137    2.276705
O      7.207107   -2.414168   -1.309003
O      6.716227   -3.287127    0.711635
O      6.432346   -0.020153   -1.501485
Cl     0.687631    0.000000    0.000000
H      5.590962    1.321188   -2.874667
H      6.363871    2.080723   -1.459878
H      7.415515    1.296769   -2.701552
H     -2.330170    2.875612   -2.759403
H     -3.619712    3.290084   -1.617393
H     -4.486998    1.111569   -1.457617
H     -4.039510    1.315267   -3.165153
H     -1.168915    3.208132   -0.793378
H     -2.485295    2.633305    0.252822
H     -3.283433    0.733147    3.619225
H      2.408024    0.784348    0.198828
H     -5.486758   -0.308416    3.402632
H      4.287063    1.390645   -1.138471
H     -3.363503   -0.876714   -2.303572
H     -1.955621    0.074491   -2.865355
H     -1.279918   -1.873551   -1.743912
H     -1.463038   -2.038500    0.028215
H      0.722806   -0.553354   -1.504409
H      0.781010   -1.926130   -0.388633
H     -1.630012    2.112796    2.027278
H     -1.006926    0.649032    2.779462
H      4.248549   -2.964251    1.221175
H     -4.564990   -1.159108   -0.689900
H      0.755615   -0.342965    2.666580
H     -0.081160   -1.696383    1.746603
H     -0.446296    1.115082   -1.449785
H      0.216688    1.915152    0.709096
H     -7.057929   -1.442092    1.972962
H     -0.687631    0.000000    0.000000
