55

C     -2.816577   -2.375162    1.380089
C     -3.482668   -2.009588    0.067371
C     -1.795173   -1.339837    1.762979
C     -2.261190    2.648742    0.658514
C     -3.415989    2.955827   -0.032767
C     -2.461831   -1.855673   -1.016181
C     -0.425545   -0.703745   -1.740586
C      0.687321    0.279943   -1.349969
C      2.547710   -0.165574    0.155544
C      5.709601   -0.709959   -0.657092
C      3.232511    1.149270    0.161830
C      5.566898    0.735894   -0.269827
C     -0.379939    1.198389    1.256717
C     -3.303630    0.845847   -1.123453
C     -1.617465    1.435247    0.463391
C     -3.948759    2.063315   -0.927443
C     -0.818253   -1.181687    0.632296
C     -2.148217    0.538218   -0.432022
C      0.253232   -0.137711    0.984081
C     -1.475104   -0.766404   -0.652489
N      1.145897   -0.104675   -0.086896
O      6.943566   -0.905887   -1.339567
O     -5.126267    2.362470   -1.639884
O      4.528623    1.161430    0.391942
Cl     0.689268    0.000000    0.000000
H     -3.639494   -2.319617    2.152835
H     -2.414983   -3.402315    1.346080
H     -4.079758   -1.096963    0.211327
H     -4.174122   -2.855308   -0.209595
H     -1.238989   -1.685142    2.652243
H     -2.324042   -0.403261    1.931841
H     -1.851411    3.371378    1.367014
H     -3.911231    3.909007    0.128349
H     -1.870175   -2.814381   -1.040510
H     -2.923992   -1.728898   -1.994519
H      0.039126   -1.720638   -1.771997
H     -0.843578   -0.433968   -2.726136
H      1.506830    0.124898   -2.094748
H      0.311810    1.312024   -1.460715
H      2.976990   -0.869177   -0.545899
H      2.671364   -0.638879    1.175156
H      4.944226   -0.985566   -1.441200
H      5.645882   -1.397461    0.190290
H      2.724029    1.813606    0.959254
H      2.965520    1.665672   -0.830914
H      5.780530    1.344901   -1.230622
H      6.536625    0.974064    0.314122
H     -0.590304    1.286533    2.344610
H      0.333232    2.015065    0.937833
H     -3.739738    0.157707   -1.831275
H     -0.273862   -2.132839    0.439578
H      0.767652   -0.501120    1.895474
H      7.559131   -0.202198   -1.010602
H     -6.026018    2.094187   -1.218839
H     -0.689268    0.000000    0.000000
