56

C      5.073720    0.844218    0.305002
C      5.034670    0.177211   -2.077757
C     -1.655401   -2.042721    1.951235
C     -2.165727   -2.716978    0.729685
C     -0.428409   -1.231763    1.786961
C     -2.883509    2.258836    1.435946
C     -4.242489    1.938211    1.502074
C      3.032013   -0.257589   -0.642035
C     -1.992237   -2.007741   -0.557190
C     -1.145701    0.012765   -1.730158
C      2.337025    1.050125   -0.907687
C      0.322093    0.220966   -1.930933
C     -0.585223    1.818521    0.771371
C     -3.828302   -0.065570    0.313386
C      4.523462   -0.119411   -0.691092
C     -2.008299    1.419400    0.811728
C     -4.721813    0.778649    0.943407
C     -0.230944   -0.659587    0.411080
C     -2.491402    0.250664    0.248913
C      0.362262    0.715788    0.426278
C     -1.501874   -0.611325   -0.406928
N      0.916836    0.970808   -0.867919
O     -6.071602    0.470074    1.014461
Cl     0.691764    0.000000    0.000000
H      5.167614    1.879007   -0.082142
H      6.132618    0.523927    0.529829
H      4.544480    0.793703    1.268286
H      5.288985    1.225764   -2.234444
H      4.253301   -0.122281   -2.832521
H      5.923726   -0.464339   -2.334597
H     -1.420725   -2.856968    2.701958
H     -2.472840   -1.454612    2.464302
H     -3.268535   -2.890263    0.897624
H     -1.769749   -3.770929    0.621471
H      0.475488   -1.783398    2.134069
H     -0.509401   -0.345750    2.484159
H     -2.537523    3.181528    1.887234
H     -4.905720    2.619298    2.001475
H      2.759615   -0.721808    0.306146
H      2.750748   -0.978910   -1.459313
H     -2.939477   -2.073146   -1.165890
H     -1.220255   -2.554131   -1.158869
H     -1.484429   -0.712280   -2.527771
H     -1.734926    0.941127   -1.921332
H      2.672312    1.779199   -0.142102
H      2.657182    1.413005   -1.886313
H      0.834757   -0.727029   -2.153186
H      0.420827    0.848233   -2.866604
H     -0.519264    2.659224    0.020286
H     -0.352863    2.313319    1.754504
H     -4.242855   -0.959533   -0.112046
H      4.938715   -1.137420   -0.420963
H      0.474394   -1.326105   -0.127253
H      1.152090    0.710066    1.234758
H     -6.717436    0.777951    0.279420
H     -0.691764    0.000000    0.000000
