47

C      4.070021   -1.220644   -0.124248
C      3.386150   -0.180281    0.730622
C     -0.662973    2.977021   -1.232201
C     -1.231030    2.973614    0.161081
C     -0.140483    1.584782   -1.639999
C     -1.238099   -2.717862   -1.189914
C     -2.552311   -3.015422   -0.880310
C     -1.761974    1.619901    0.560965
C     -0.085537    0.301657    1.870650
C      1.407657    0.367669    1.791541
C      0.785026   -1.360221   -1.149853
C     -2.664456   -0.948581    0.362463
C     -0.607505   -1.569855   -0.753859
C     -3.241563   -2.105892   -0.096857
C      0.413706    0.989538   -0.372840
C     -1.333602   -0.699355    0.016704
C      1.393851   -0.119242   -0.560899
C     -0.713269    0.548291    0.505929
N      1.951562   -0.479074    0.739133
O     -4.570716   -2.340946    0.254187
Br     0.765140    0.000000    0.000000
H      5.179028   -1.167805   -0.029635
H      3.719991   -1.183592   -1.153161
H      3.773083   -2.222067    0.313155
H      3.513565    0.791313    0.145356
H      3.816313   -0.018607    1.715837
H      0.262755    3.624622   -1.204263
H     -1.328849    3.414094   -1.978945
H     -2.077276    3.690488    0.193467
H     -0.488642    3.266962    0.937591
H     -0.955367    1.026949   -2.099932
H      0.690481    1.743535   -2.372213
H     -0.717855   -3.459539   -1.821912
H     -3.054775   -3.905997   -1.218905
H     -2.644328    1.421514   -0.066097
H     -2.122271    1.695386    1.606203
H     -0.467679    1.071481    2.551490
H     -0.388555   -0.709607    2.247212
H      1.848743    1.371382    1.833081
H      1.779002   -0.126693    2.746085
H      0.814734   -1.310120   -2.280319
H      1.352727   -2.268161   -0.879023
H     -3.197698   -0.234411    0.968476
H      0.947590    1.823807    0.131492
H      2.202499    0.225182   -1.233210
H     -5.061671   -3.165215   -0.047035
H     -0.765140    0.000000    0.000000
