70

C      7.133194   -0.536832   -0.790999
C      6.634781    0.740685   -0.179791
C     -2.719360    1.308060    2.729861
C     -3.726554    0.757635    1.739554
C     -1.376388    1.360201    2.063714
C     -2.036947    1.405320   -2.532717
C     -3.217064    1.002601   -3.137970
C      2.874224    0.116819   -0.389142
C     -3.302568   -0.681931    1.510219
C     -1.499026   -1.991125    0.376105
C      2.065186   -1.031957    0.106181
C     -0.086108   -2.026253    0.051005
C     -0.368590    1.346206   -0.704264
C     -3.590953   -0.424895   -1.266108
C     -1.646036    0.895234   -1.309951
C     -3.998555    0.085091   -2.505261
C     -0.980231    0.106715    1.376319
C     -2.422442   -0.033961   -0.652940
C      0.113608    0.361549    0.349012
C      4.320637   -0.061628   -0.073424
C     -2.069165   -0.617716    0.647914
N      0.663376   -0.832939   -0.199640
O     -5.196674   -0.340660   -3.095817
O      4.660102   -1.089814    0.558088
O      5.243302    0.860983   -0.459583
C     -0.348359   -0.281399    0.449701
C      0.439365    0.934449    0.025722
C     -1.783486    0.033012    0.579852
C      1.857440    0.510600   -0.124737
O     -0.167127   -1.271989   -0.495799
O     -0.051042    1.332247   -1.214946
O     -2.167840    0.921120    1.400165
O     -2.764674   -0.603234   -0.162843
O      2.415721    0.550851   -1.249655
O      2.608228    0.062403    0.947107
H      7.894185   -0.412446   -1.571641
H      7.569585   -1.141858    0.045644
H      6.279296   -1.152693   -1.188163
H      6.826948    0.816967    0.914819
H      7.132978    1.576711   -0.709230
H     -2.705673    0.566728    3.570504
H     -2.976404    2.308106    3.101580
H     -4.762593    0.848251    2.067154
H     -3.562607    1.309955    0.776913
H     -1.307113    2.237749    1.415248
H     -0.617834    1.535453    2.886913
H     -1.433824    2.146285   -3.072272
H     -3.520317    1.399529   -4.087855
H      2.580732    1.049959    0.116278
H      2.760530    0.205646   -1.497311
H     -3.045593   -1.093176    2.528120
H     -4.112058   -1.271536    1.108525
H     -1.778090   -2.670249    1.244772
H     -2.125622   -2.426984   -0.463908
H      2.126987   -0.998018    1.232122
H      2.427621   -2.014434   -0.265610
H      0.064772   -2.672754   -0.872638
H      0.474280   -2.606592    0.841780
H      0.410175    1.287521   -1.523816
H     -0.365831    2.384843   -0.379739
H     -4.287293   -1.154582   -0.856013
H     -0.548050   -0.605545    2.119180
H      0.902852    0.888544    0.935895
H     -5.773787   -1.018768   -2.627617
H      0.030647   -0.657867    1.427624
H      0.391022    1.752270    0.774463
H     -0.715271   -1.060631   -1.305770
H      0.355216    0.701898   -1.884575
H     -3.697578   -0.210565   -0.192256
H      3.597738    0.256009    1.025947
