70

C      7.093297    0.989435    0.645411
C      6.860614   -0.429381    0.196293
C     -3.313520   -2.387474   -1.376433
C     -4.005083   -1.999298   -0.107604
C     -2.159840   -1.474311   -1.714593
C     -1.990597    2.645241   -1.266501
C     -3.018642    3.317196   -0.663031
C      3.102292   -0.713340    0.483202
C     -3.129315   -1.508734    0.985813
C     -1.012370   -0.620028    1.763545
C      2.092871    0.217171   -0.151273
C      0.344263   -0.092335    1.439784
C     -0.508029    0.750527   -1.611374
C     -3.357138    1.409511    0.741336
C     -1.647818    1.352908   -0.862640
C     -3.703553    2.685819    0.350151
C     -1.233505   -1.341539   -0.547105
C     -2.324171    0.702360    0.152995
C     -0.067209   -0.513004   -0.915686
C      4.450157   -0.212185    0.092362
C     -1.962850   -0.670139    0.582771
N      0.796267   -0.194275    0.141630
O     -4.739897    3.391276    0.940262
O      4.596369    0.806760   -0.652202
O      5.566026   -0.882841    0.558398
C     -0.731856    0.286832   -0.493038
C     -0.199156   -0.910571    0.289487
C     -0.356897    1.569050    0.123933
C      1.265793   -0.964655    0.129427
O     -2.162761    0.199570   -0.493389
O     -0.699224   -2.058969   -0.373437
O     -1.249928    2.315021    0.654059
O      0.936451    2.010493    0.153725
O      1.774679   -1.855200   -0.637437
O      2.156118   -0.110289    0.760189
H      7.140569    1.696837   -0.234827
H      6.245826    1.356966    1.258134
H      8.012833    1.060612    1.262286
H      7.596456   -1.098409    0.685671
H      6.916212   -0.505199   -0.922717
H     -2.982513   -3.456052   -1.379600
H     -4.039800   -2.306552   -2.210579
H     -4.524363   -2.929329    0.270077
H     -4.847459   -1.273386   -0.292783
H     -1.579577   -2.006487   -2.527892
H     -2.558460   -0.548834   -2.125089
H     -1.456068    3.156587   -2.067654
H     -3.266915    4.323557   -0.992783
H      2.982751   -0.755286    1.575055
H      2.960632   -1.725100    0.095131
H     -3.780941   -1.025483    1.747661
H     -2.706484   -2.413245    1.518602
H     -1.527511   -0.041940    2.556430
H     -0.934504   -1.670168    2.149361
H      2.306555    0.412053   -1.214109
H      2.269831    1.214559    0.352349
H      1.067758   -0.578013    2.140124
H      0.348581    0.995447    1.758111
H      0.357784    1.471501   -1.538606
H     -0.725461    0.601795   -2.669736
H     -3.943416    0.987488    1.543865
H     -0.928863   -2.371526   -0.249503
H      0.529469   -1.090975   -1.683911
H     -5.661542    3.289265    0.543282
H     -0.394356    0.202901   -1.523640
H     -0.536979   -0.908873    1.342818
H     -2.383962    0.009244    0.450711
H     -1.603622   -2.263252    0.010230
H      1.176542    2.979700    0.277201
H      3.009158   -0.501001    1.188771
