61

C      6.564198    0.187632    0.321460
C      5.616198   -0.886200    0.744906
C      6.348473    0.395102   -1.169279
C     -3.406876   -2.575292    1.618618
C     -3.466203   -2.785672    0.125287
C      4.228690   -0.473943    0.404046
C      4.971009    0.880285   -1.467528
C     -2.156448   -1.783402    1.918738
C     -2.704698    2.732442    1.733223
C     -3.876655    3.280344    1.292211
C      2.505957    0.693804   -0.890732
C     -3.662136   -1.408870   -0.513053
C     -1.754402   -0.233924   -1.498834
C      1.610981    0.016841    0.080395
C     -0.270924   -0.242326   -1.338201
C     -0.968193    1.035931    1.816330
C     -4.151213    1.356328   -0.139480
C      3.920175    0.323368   -0.592758
C     -2.238243    1.502599    1.253409
C     -4.605037    2.581102    0.345475
C     -1.543731   -1.168467    0.720557
C     -2.967969    0.811673    0.310575
C     -0.482728   -0.174433    1.059523
C     -2.510565   -0.496564   -0.225536
N      0.206564    0.319023   -0.113302
O     -5.789766    3.163038   -0.080811
Cl     0.684657    0.000000    0.000000
H      7.629818   -0.138439    0.440007
H      6.344762    1.110488    0.873999
H      5.827608   -1.795725    0.128720
H      5.720498   -1.159790    1.818112
H      7.141304    1.052169   -1.532049
H      6.526474   -0.622893   -1.625193
H     -4.340317   -2.042519    1.947417
H     -3.416784   -3.546381    2.160856
H     -2.550217   -3.284017   -0.216466
H     -4.351253   -3.387768   -0.168147
H      3.466702   -0.902237    1.070572
H      4.700860    0.589769   -2.521040
H      5.002485    1.992556   -1.454437
H     -1.419220   -2.528900    2.332901
H     -2.398324   -1.095851    2.746933
H     -2.133593    3.287069    2.479441
H     -4.201555    4.229147    1.683587
H      2.464440    1.810987   -0.778591
H      2.257962    0.482764   -1.951126
H     -4.628782   -1.034830   -0.117647
H     -3.780333   -1.599016   -1.604244
H     -2.016847   -1.028662   -2.241745
H     -2.135994    0.710520   -1.939118
H      1.787129   -1.095298    0.011456
H      1.866404    0.334815    1.109092
H      0.158875   -1.262340   -1.436842
H      0.154624    0.347215   -2.174518
H     -1.006531    0.864367    2.910941
H     -0.158303    1.816468    1.697100
H     -4.780459    0.878678   -0.876384
H     -1.046154   -1.968666    0.127969
H      0.221604   -0.702498    1.761878
H     -6.323339    2.638400   -0.781303
H     -0.684657    0.000000    0.000000
