61

C      6.653054    0.375102    0.076498
C      6.086042    0.655664   -1.294408
C      5.726968   -0.385469    0.970848
C     -3.274278   -3.230541   -0.053707
C     -3.603228   -2.545852    1.240942
C      4.707845    1.187199   -1.112938
C      4.395823   -0.712613    0.330536
C     -2.619665   -2.245177   -1.031826
C     -2.793331    2.226106   -2.099518
C     -3.698110    3.062746   -1.495330
C      2.476674    0.933769   -0.048796
C     -3.669071   -1.047115    1.128593
C     -1.465765    0.055642    1.643733
C      1.523495   -0.155034   -0.489873
C     -0.075476    0.228245    1.148479
C     -1.408116    0.208943   -2.088165
C     -3.750233    1.645092    0.393052
C      3.880374    0.521436   -0.320741
C     -2.381116    1.090818   -1.420667
C     -4.195656    2.786420   -0.231968
C     -1.672669   -1.427656   -0.233708
C     -2.842769    0.783654   -0.184437
C     -0.670213   -0.645245   -1.046009
C     -2.434357   -0.411588    0.582377
N      0.136593    0.197097   -0.244734
O     -5.103898    3.683804    0.301522
Cl     0.691143    0.000000    0.000000
H      7.620326   -0.162435    0.001461
H      6.904498    1.383136    0.514713
H      6.029778   -0.284063   -1.886303
H      6.711553    1.424219   -1.778202
H      6.227165   -1.325722    1.337782
H      5.504200    0.240704    1.873137
H     -4.102895   -3.781440   -0.507479
H     -2.474178   -3.975840    0.170300
H     -2.944300   -2.821862    2.077061
H     -4.648723   -2.873262    1.514862
H      4.354038    2.082174   -1.592091
H      3.727611   -1.060350    1.147863
H      4.492372   -1.481360   -0.451564
H     -2.141995   -2.837019   -1.839136
H     -3.420263   -1.591401   -1.442259
H     -2.410524    2.436525   -3.069337
H     -4.008506    3.946176   -2.041761
H      2.239655    1.909222   -0.517212
H      2.408668    1.096187    1.052625
H     -4.576344   -0.815686    0.516245
H     -3.875796   -0.636367    2.130430
H     -1.861680    0.959412    2.147879
H     -1.468396   -0.753183    2.420673
H      1.828933   -1.092218    0.014540
H      1.708362   -0.328105   -1.583783
H      0.622263   -0.492349    1.648886
H      0.279188    1.239128    1.514244
H     -1.929149   -0.484387   -2.797361
H     -0.683800    0.803118   -2.651186
H     -4.153416    1.444616    1.387556
H     -1.110655   -2.063869    0.459132
H     -0.084168   -1.388186   -1.636923
H     -4.692738    4.449040    0.852210
H     -0.691143    0.000000    0.000000
