65

C      5.417061   -0.169625    5.920626
C     -0.095315    0.219079    6.100602
C     -3.649180   -1.756396   -3.326461
C     -2.523788   -1.777181   -4.339170
C     -3.278750   -0.833213   -2.157409
C      3.148975   -1.279582    2.550796
C     -1.613363    3.152314   -1.274992
C     -1.364911    4.079781   -2.254169
C      3.893135   -0.911601    3.667316
C      0.981166   -1.599664    1.324644
C     -1.802719   -0.440163   -4.386625
C      0.330992   -0.504443   -3.078852
C      0.823800   -0.334430    0.522400
C      0.710229   -1.165129   -1.744960
C      1.176073   -0.745193    3.693996
C     -1.836584    0.908118   -0.352021
C     -0.969094    2.280677   -3.752627
C      1.774112   -1.204973    2.538423
C     -1.545963    1.772613   -1.510149
C     -1.033014    3.629084   -3.529785
C     -1.795038   -0.932404   -2.004965
C     -1.221616    1.325176   -2.757714
C     -1.309114   -0.511747   -0.613637
C      3.286126   -0.461513    4.794487
C      1.897729   -0.377495    4.805251
C     -1.134163   -0.109943   -3.064600
N      0.109682   -0.434479   -0.684365
O     -0.772418    4.524254   -4.552659
O      4.002297   -0.081767    5.938381
O      1.306978    0.086516    5.970463
Cl     0.692722    0.000000    0.000000
H      5.877353    0.185640    4.988775
H      5.709155   -1.239661    6.078312
H      5.812529    0.450591    6.774164
H     -0.570413   -0.724363    6.410700
H     -0.244352    1.015499    6.882068
H     -0.523472    0.636856    5.160817
H     -3.765524   -2.765059   -2.876022
H     -4.586247   -1.422119   -3.796900
H     -2.993556   -1.901159   -5.341965
H     -1.833351   -2.620424   -4.212826
H     -3.760477   -1.168410   -1.211383
H     -3.587164    0.178683   -2.472652
H      3.667956   -1.626499    1.689858
H     -1.873581    3.528715   -0.277698
H     -1.414211    5.153009   -2.088000
H      4.966424   -0.993512    3.610676
H      1.554259   -2.385804    0.828876
H      0.042457   -2.015037    1.703137
H     -2.625740    0.324435   -4.514188
H     -1.140383   -0.388466   -5.249479
H      0.981490    0.389287   -3.182115
H      0.585189   -1.180662   -3.919662
H      0.428113    0.430639    1.193552
H      1.878795   -0.026570    0.251806
H      0.520411   -2.237185   -1.740754
H      1.819177   -1.039743   -1.661071
H      0.094672   -0.675256    3.714780
H     -1.285151    1.298443    0.521714
H     -2.912668    0.879401   -0.101737
H     -0.708631    1.911068   -4.752481
H     -1.462497   -1.991186   -2.144375
H     -1.747520   -1.163243    0.127821
H      0.183634    4.835419   -4.682414
H     -0.692722    0.000000    0.000000
