63

C      6.626216   -0.499713    2.032154
C      7.591156   -0.647333   -0.254377
C     -2.662408   -2.233480    2.295211
C     -3.889949   -2.305387    1.432259
C     -1.930416   -0.917098    2.014655
C      3.877784    0.828053   -1.767373
C      2.989228    0.978279    0.410256
C     -3.477709    2.629024    0.494754
C      5.047281    0.355510   -1.241245
C      4.184415    0.496104    0.938023
C     -4.862055    2.681654    0.603700
C      1.541032    1.680446   -1.451705
C     -3.609454   -2.154299   -0.028978
C     -2.335679   -0.821148   -1.738277
C      0.542325    0.713881   -1.925078
C     -0.878614   -1.116577   -1.862867
C     -1.342362    1.500060    0.089833
C     -4.966012    0.359355    0.105980
C      2.804305    1.154878   -0.936848
C     -2.823759    1.450530    0.192704
C      5.231750    0.178061    0.110460
C     -5.612066    1.545309    0.409184
C     -1.585290   -0.945621    0.549150
C     -3.584128    0.312656   -0.000911
C     -0.659994    0.187917    0.131288
C     -2.834713   -0.916661   -0.317259
N      6.472892   -0.316774    0.595845
N     -0.018252   -0.246041   -1.075343
O     -7.006204    1.608713    0.521047
H      6.010195   -1.383879    2.346549
H      7.664401   -0.723982    2.294793
H      6.265984    0.359863    2.613221
H      7.699881    0.076520   -1.075251
H      7.466116   -1.658703   -0.717318
H      8.542630   -0.669230    0.321338
H     -2.005365   -3.094418    2.188492
H     -3.018882   -2.163823    3.354149
H     -4.290348   -3.354144    1.568454
H     -4.665773   -1.648316    1.827159
H     -1.014709   -0.814439    2.596823
H     -2.639637   -0.117461    2.232100
H      3.692950    0.981861   -2.826774
H      2.215094    1.218863    1.134898
H     -2.885819    3.537695    0.650163
H      5.860980    0.111386   -1.929616
H      4.319615    0.360006    2.001856
H     -5.360418    3.611006    0.841268
H      1.823037    2.314547   -2.350205
H      1.182421    2.435173   -0.723044
H     -3.089544   -3.066741   -0.403152
H     -4.568027   -2.130559   -0.575360
H     -2.881604   -1.583699   -2.328693
H     -2.575080    0.167365   -2.204518
H     -0.234917    1.282806   -2.503911
H      1.058267    0.124158   -2.759286
H     -0.615937   -0.998245   -2.944513
H     -0.708939   -2.179781   -1.617551
H     -1.157546    2.034724   -0.888669
H     -1.020010    2.178432    0.941184
H     -5.588820   -0.508986   -0.043104
H     -1.060475   -1.901590    0.357746
H      0.134526    0.229285    0.930492
H     -7.383568    1.434005    1.448737
