67

C      5.833705    0.650933    0.264713
C      4.855226   -0.400159   -0.223645
C      3.509076    0.276041   -0.414617
C     -1.745304   -2.178388    2.050022
C     -2.174690   -2.740620    0.725270
C     -0.968996   -0.882570    1.907827
C     -1.527582    3.076372    0.575087
C     -2.831150    3.457772    0.417735
C     -2.667575   -1.580424   -0.132139
C     -1.050755   -0.675191   -1.815112
C      2.515366   -0.741188   -0.912759
C      0.398492   -1.037700   -1.804301
C      0.308499    1.490765    0.513831
C     -3.341649    1.245860   -0.275450
C     -1.121886    1.753811    0.301671
C     -3.760888    2.524337   -0.017382
C     -0.416726   -0.897599    0.492419
C     -2.018569    0.816658   -0.126521
C      0.704575    0.066475    0.300624
C     -1.602284   -0.553966   -0.407123
N      1.209130   -0.082315   -1.066614
O     -5.099948    2.910663   -0.182895
C      0.485816   -0.008897   -0.868187
C     -0.564561    0.831642   -0.197817
C      1.454811   -0.582689    0.092888
C     -1.491994    0.084249    0.642076
O     -0.019794   -1.009076   -1.662168
O      0.093871    1.793387    0.565374
O      1.712907   -1.814407    0.106439
O      2.131421    0.197262    1.029248
O     -1.616001    0.335856    1.862532
O     -2.274580   -0.935813    0.123296
H      6.782878    0.157821    0.618620
H      6.054241    1.374257   -0.532391
H      5.343973    1.143591    1.154757
H      4.748030   -1.173095    0.573792
H      5.144670   -0.849878   -1.190896
H      3.135259    0.713487    0.520321
H      3.594350    1.034336   -1.232587
H     -1.176717   -2.959710    2.611224
H     -2.696853   -1.941889    2.612645
H     -1.462415   -3.392620    0.235806
H     -3.085077   -3.370264    0.922386
H     -0.224022   -0.718194    2.680494
H     -1.696128   -0.022592    1.955293
H     -0.819463    3.822641    0.915968
H     -3.157770    4.465510    0.622440
H     -3.017293   -1.984986   -1.111514
H     -3.537539   -1.163260    0.407588
H     -1.573555   -1.399982   -2.445553
H     -1.162483    0.309690   -2.342184
H      2.447455   -1.528041   -0.115920
H      2.836312   -1.263498   -1.835022
H      0.628173   -2.076459   -1.551110
H      0.749089   -0.918965   -2.876964
H      0.883015    2.116819   -0.226620
H      0.650580    1.854715    1.531314
H     -4.070283    0.531300   -0.611356
H     -0.034334   -1.916842    0.332604
H      1.469491   -0.182340    1.066852
H     -5.759649    2.838880    0.579911
H      1.069360    0.680468   -1.531470
H     -1.143599    1.352380   -0.983984
H     -0.205050   -1.855543   -1.185711
H      0.727601    2.251685   -0.061174
H      2.850851   -0.182230    1.618450
H     -3.211059   -1.138273    0.450210
