61

C      5.499106    1.228226    0.258769
C      3.974709   -2.207113   -0.139878
C      4.312882    0.541539    0.871346
C      3.761926   -0.929680   -0.890471
C     -1.697584   -2.521995    1.981835
C     -2.288356   -2.940763    0.651062
C     -1.207338   -1.064393    1.907622
C     -2.543622    2.902656    0.734467
C     -3.929330    3.065373    0.841405
C     -3.065342   -1.773336    0.024165
C     -1.789236   -0.509561   -1.756121
C     -0.358139   -0.474735   -2.091673
C      2.609249    1.196951   -0.600239
C      1.590911    0.853780   -1.632908
C     -0.500593    1.647266    0.275774
C     -4.184988    0.750558    0.178605
C     -1.970112    1.707539    0.362093
C     -4.725972    1.958934    0.553545
C     -0.904658   -0.816870    0.477973
C     -2.812266    0.650162    0.090393
C      0.062094    0.277647    0.167655
C     -2.159920   -0.622817   -0.315006
N      3.314288    0.109037   -0.054786
N      0.577459   -0.004762   -1.137440
O     -6.095444    2.088548    0.649546
Cl     0.685523    0.000000    0.000000
H      6.288891    0.523705   -0.070475
H      5.230452    1.925678   -0.528218
H      5.985892    1.840698    1.070176
H      4.672086   -2.874726   -0.723470
H      4.409960   -2.115564    0.854022
H      3.012343   -2.781941   -0.007135
H      4.663192   -0.247962    1.572956
H      3.849460    1.311550    1.563916
H      3.025965   -1.178792   -1.706959
H      4.703312   -0.696355   -1.434291
H     -0.756438   -3.121293    2.102570
H     -2.388058   -2.676626    2.817984
H     -3.082806   -3.705944    0.879704
H     -1.596262   -3.419211   -0.032133
H     -2.036730   -0.434236    2.237535
H     -0.294267   -0.956747    2.532669
H     -1.969545    3.792141    0.967197
H     -4.349061    4.020765    1.137946
H     -3.776332   -1.483711    0.855414
H     -3.673398   -2.150334   -0.792716
H     -2.276089   -1.357259   -2.331656
H     -2.275587    0.397142   -2.230881
H     -0.226689    0.063792   -3.075684
H     -0.040744   -1.531306   -2.352394
H      2.141951    1.749970    0.272334
H      3.300908    1.966602   -1.034788
H      1.177740    1.836785   -2.003927
H      2.079949    0.412418   -2.503398
H     -0.124380    2.214418    1.174160
H     -0.196687    2.270613   -0.589017
H     -4.862452   -0.062192   -0.032400
H     -0.426277   -1.766355    0.085064
H      0.912621    0.190666    0.906086
H     -6.572645    2.931420    0.913823
H     -0.685523    0.000000    0.000000
