67

C      5.627947    1.495548    0.080556
C      4.923187    0.181168    0.346421
C      3.420453    0.419276    0.375055
C     -1.979475   -1.096584   -2.830088
C     -2.332018   -2.237842   -1.896736
C     -1.152366   -0.028219   -2.101949
C     -1.511180    2.694746    1.086059
C     -2.769761    2.910091    1.556885
C     -2.691825   -1.681679   -0.515874
C     -0.876598   -1.746698    1.223567
C      2.684938   -0.862889    0.636711
C      0.580217   -1.963768    0.941231
C      0.307866    1.384879    0.137089
C     -3.253245    0.609513    1.095583
C     -1.098637    1.453484    0.616306
C     -3.651177    1.843242    1.558522
C     -0.497124   -0.725601   -0.939416
C     -1.966416    0.397548    0.616392
C      0.688995    0.034466   -0.389858
C     -1.554154   -0.952455    0.117245
N      1.271099   -0.722507    0.677894
O     -4.959327    2.018730    2.034878
C     -0.430975   -0.044459   -0.518521
C      0.611230    0.231519    0.548973
C     -1.751792    0.450226   -0.079874
C      1.958806   -0.123465    0.000909
O     -0.495297   -1.401280   -0.812343
O      0.320159   -0.437053    1.714706
O     -1.906104    1.656776    0.233454
O     -2.872168   -0.366561    0.010125
O      2.707332   -0.938320    0.563851
O      2.307942    0.531692   -1.190236
H      6.677972    1.374008   -0.176272
H      5.442857    2.163395    0.942639
H      5.094768    1.971236   -0.793699
H      5.203069   -0.507046   -0.482530
H      5.279332   -0.282613    1.287277
H      3.253127    1.110184    1.237203
H      3.165046    0.873103   -0.594762
H     -1.303897   -1.548021   -3.612767
H     -2.872589   -0.652062   -3.315042
H     -3.286659   -2.711426   -2.265260
H     -1.579379   -3.020849   -1.850951
H     -0.421927    0.433390   -2.788747
H     -1.877402    0.704720   -1.700082
H     -0.823423    3.554443    1.092166
H     -3.054374    3.888434    1.913825
H     -3.153899   -2.452348    0.102497
H     -3.492477   -0.913443   -0.728411
H     -0.990024   -1.178183    2.153213
H     -1.380398   -2.738038    1.267620
H      3.050470   -1.629448   -0.084637
H      3.018472   -1.222726    1.645691
H      1.028932   -2.363578    1.897497
H      0.777077   -2.748252    0.187397
H      0.940060    1.685160    0.998258
H      0.467831    2.180536   -0.636688
H     -3.976154   -0.193564    1.116543
H     -0.126462   -1.696081   -1.306077
H      1.369517    0.191699   -1.258098
H     -5.640866    2.302920    1.325723
H     -0.100334    0.474476   -1.444196
H      0.647513    1.311449    0.771458
H     -1.353472   -1.749327   -0.511102
H      0.857092   -0.056126    2.453088
H     -3.785872   -0.041092   -0.275410
H      3.285937    0.501545   -1.464880
