51

C     -3.737536    3.814866   -0.111866
C     -3.632196    2.507746   -0.275946
C     -1.042523   -3.417467   -0.934764
C     -0.587848   -3.569030    0.493930
C     -1.053470   -1.936701   -1.330459
C      1.390422    1.513779   -1.312784
C      2.726106    1.345809   -0.965137
C      0.347569   -2.473373    0.931193
C     -0.696026   -0.528755    2.132762
C     -3.436066    1.640967    0.895531
C     -2.084659    0.060448    2.007868
C     -0.992242    0.997421   -1.196861
C      2.079268   -0.388572    0.504044
C      0.389276    0.722007   -0.745740
C      3.076718    0.390282   -0.051890
C     -1.460670   -1.185477   -0.081458
C      0.750931   -0.223353    0.159958
C     -2.005226    0.190574   -0.392915
C     -0.252794   -1.100996    0.804125
N     -2.213663    0.878745    0.843902
O      5.592387    2.742215    0.215223
O      7.134226    0.492367    0.220603
O      5.643409    1.087235   -1.856860
O      4.396624    0.210056    0.304478
P      5.669010    1.133932   -0.341945
H     -3.881751    4.459425   -0.966387
H     -3.687825    4.304999    0.854176
H     -3.698099    2.129613   -1.300409
H     -0.454783   -4.010910   -1.648890
H     -2.088023   -3.802427   -0.988291
H     -0.016000   -4.522193    0.551834
H     -1.422759   -3.665369    1.210956
H     -1.712121   -1.747661   -2.182613
H      0.008890   -1.686554   -1.555743
H      1.162334    2.281093   -2.038280
H      3.498840    1.959363   -1.405008
H      0.580826   -2.649534    1.998280
H      1.286695   -2.599405    0.353352
H     -0.679705   -1.255962    2.951735
H     -0.010742    0.300465    2.394043
H     -4.334038    1.000812    0.996840
H     -3.388888    2.271593    1.803060
H     -2.234494    0.707958    2.896768
H     -2.834601   -0.748851    2.081584
H     -1.126670    0.849529   -2.288176
H     -1.184288    2.083253   -1.001790
H      2.406141   -1.132769    1.223256
H     -2.261690   -1.761600    0.405920
H     -2.925619    0.045389   -0.994665
H      6.006630    2.749373    1.108505
H      6.990712   -0.464354    0.430226
