49

C     -4.162499   -3.622644   -0.370467
C      5.383980   -1.862799   -1.162713
C     -3.857944   -2.587083    0.155411
C     -0.605797    3.555114    0.630360
C     -0.489386    3.273924   -0.854383
C     -0.583216    2.256498    1.450286
C      1.922891   -1.721780    1.363023
C      3.042234   -1.781152    0.563970
C      0.451182    2.094875   -1.066181
C     -0.958985    0.061112   -1.573029
C     -3.471303   -1.306908    0.780363
C     -2.140522   -0.660799   -1.025488
C     -0.326547   -0.795087    1.868586
C      2.091963   -0.170536   -0.916980
C      0.867777   -0.864880    1.007851
C      3.133172   -1.003969   -0.582530
C     -1.102511    1.191529    0.550487
C      0.938905   -0.091396   -0.119969
C     -1.497237   -0.083777    1.241866
C     -0.156495    0.816720   -0.541780
N     -2.130213   -0.975730    0.346354
O      4.241625   -1.061810   -1.373386
Br     0.766742    0.000000    0.000000
H     -4.454354   -4.548909   -0.845570
H      5.246924   -2.909111   -1.497502
H      5.770202   -1.814039   -0.122146
H      6.202145   -1.435893   -1.814141
H      0.196101    4.240334    0.925553
H     -1.615767    4.030479    0.761175
H     -0.042911    4.151405   -1.335963
H     -1.474453    3.086374   -1.328973
H      0.467265    2.043031    1.762231
H     -1.258088    2.373108    2.326438
H      1.836018   -2.315916    2.251840
H      3.879122   -2.414198    0.778413
H      0.833834    2.022909   -2.087411
H      1.338125    2.317326   -0.401351
H     -0.263837   -0.618670   -2.149017
H     -1.317769    0.805635   -2.313151
H     -4.223160   -0.529770    0.454488
H     -3.591979   -1.379815    1.869442
H     -3.100179   -0.109860   -1.252373
H     -2.239358   -1.626210   -1.606928
H     -0.663937   -1.859822    2.037449
H     -0.095370   -0.405343    2.883591
H      2.171971    0.444403   -1.827670
H     -2.028526    1.577266    0.068942
H     -2.163091    0.215862    2.090982
H     -0.766742    0.000000    0.000000
