49

C     -4.561155    2.447825   -1.484589
C      5.357903    1.732860    1.015888
C     -3.735271    1.724250   -1.915832
C     -1.560130   -2.886386    1.273186
C     -0.057512   -2.979849    1.347581
C     -1.871906   -1.378724    1.294753
C      1.207790    2.218342    1.147171
C      2.566347    2.066725    1.111886
C      0.489431   -2.452915    0.017215
C      0.080139   -0.933779   -1.858415
C     -2.696706    0.847717   -2.454439
C     -0.358555    0.397998   -2.286366
C     -1.079642    1.436402    0.750591
C      2.248479   -0.106927    0.158601
C      0.380671    1.210879    0.689353
C      3.084923    0.900700    0.615306
C     -1.428259   -0.856876   -0.030203
C      0.879791    0.021087    0.183885
C     -1.732912    0.580383   -0.292209
C      0.035662   -1.082220   -0.315086
N     -1.490706    0.994549   -1.644761
O      4.472998    0.748337    0.578975
Br     0.765982    0.000000    0.000000
H     -5.339454    3.107757   -1.073340
H      5.023558    2.736081    0.641952
H      5.446779    1.827890    2.113550
H      6.345492    1.515234    0.553556
H     -1.851359   -3.317089    0.272013
H     -2.082276   -3.411777    2.087362
H      0.318895   -4.022421    1.446064
H      0.333689   -2.394429    2.192142
H     -1.392212   -0.971023    2.172987
H     -2.988834   -1.288194    1.343661
H      0.804159    3.139865    1.537821
H      3.190635    2.883227    1.481131
H      0.124056   -3.157463   -0.775156
H      1.565607   -2.596759    0.069291
H     -0.472852   -1.778926   -2.301839
H      1.165838   -1.046784   -2.104440
H     -2.968792   -0.232863   -2.345442
H     -2.450726    1.063215   -3.501544
H     -0.629399    0.335685   -3.386432
H      0.510595    1.120354   -2.299983
H     -1.417858    1.099694    1.754229
H     -1.370798    2.501506    0.660201
H      2.754920   -1.006272   -0.223524
H     -1.995607   -1.444289   -0.796997
H     -2.855433    0.687403   -0.133460
H     -0.765982    0.000000    0.000000
