51

C      7.038914    0.258460   -0.234299
C     -4.041396   -0.469061   -2.087310
C      6.027810   -0.301732   -0.876711
C     -1.591090    0.487142    3.141438
C     -1.354818   -1.005935    3.097526
C     -2.346103    0.932255    1.934327
C      0.807722    1.924003   -1.342224
C      2.105663    1.457971   -1.280681
C     -0.434755   -1.259707    1.906625
C     -1.326635   -1.901190   -0.324501
C     -1.901722   -1.424581   -1.607819
C      4.752007    0.451519   -1.120331
C     -1.600690    1.759048   -0.817906
C      1.325482   -0.385039   -0.000528
C     -0.226927    1.227708   -0.728852
C      2.367379    0.285105   -0.598950
C     -2.307294   -0.013386    0.795505
C      0.024740    0.073927   -0.057188
C     -2.590858    0.637503   -0.536534
C     -1.003419   -0.748427    0.633144
N     -2.696656   -0.279234   -1.594302
O      3.656742   -0.214925   -0.514818
Br     0.768442    0.000000    0.000000
H      6.964261    1.290361    0.135029
H      7.944757   -0.306535   -0.073042
H     -4.629366    0.454618   -1.938272
H     -4.469932   -1.350532   -1.573135
H     -4.004267   -0.757860   -3.176971
H      6.132128   -1.317608   -1.227346
H     -2.160907    0.693753    4.090573
H     -0.611205    0.985481    3.192113
H     -2.270623   -1.594474    3.016766
H     -0.755454   -1.268709    4.000390
H     -3.426427    1.040949    2.247758
H     -2.030217    1.974832    1.683665
H      0.618379    2.849180   -1.882987
H      2.944795    1.953024   -1.734922
H      0.536645   -0.755086    2.187476
H     -0.190005   -2.338023    1.819653
H     -0.430904   -2.533510   -0.494880
H     -2.063400   -2.543042    0.222802
H     -2.476576   -2.273097   -2.060006
H     -1.040851   -1.265880   -2.321806
H      4.836187    1.434639   -0.634233
H      4.563999    0.534414   -2.199989
H     -1.785525    2.050178   -1.890539
H     -1.780378    2.653505   -0.223671
H      1.584581   -1.312653    0.529346
H     -3.096131   -0.793815    0.935942
H     -3.587663    1.156271   -0.415327
H     -0.768442    0.000000    0.000000
