71

C     -5.512713    3.235725    0.245284
C     -1.844619   -3.407166   -1.424450
C     -2.856461   -2.866092   -0.434464
C      6.380568    2.215927   -0.008775
C      5.109807    1.699176   -0.110868
C     -0.985890   -2.205154   -1.835857
C     -1.643595    2.114653   -1.266266
C     -2.863246    2.542555   -0.834941
C      3.853879   -0.254056    0.999839
C     -2.210428   -2.269391    0.772888
C     -0.413289   -0.948503    1.714833
C      2.733322    0.204993    0.103198
C      0.971437   -0.453644    1.544285
C      7.041446    1.442191    0.923278
C      0.218154    0.557606   -1.385480
C     -3.027145    0.516929    0.465510
C     -1.108264    0.895606   -0.840822
C      5.039804    0.637847    0.753681
C     -3.552046    1.728912    0.037883
C     -0.291525   -1.750023   -0.592925
C     -1.785318    0.079863    0.026894
C      0.788269   -0.719639   -0.871800
C     -1.195487   -1.191004    0.455998
N      1.593887   -0.614604    0.292446
O     -4.790670    2.077328    0.527860
O      6.202605    0.524780    1.340843
C      0.486536   -0.508980    0.231908
C     -0.697893    0.457953    0.325118
C      1.711970    0.238310    0.516915
C     -1.984839   -0.275972    0.058305
O      0.558384   -1.058556   -1.032986
O     -0.562973    1.492555   -0.596763
O      1.809599    0.809305    1.644114
O      2.783993    0.378886   -0.341911
O     -2.322195   -1.256231    0.769869
O     -2.829735    0.098861   -0.966597
H     -5.163597    3.820456   -0.626064
H     -6.588422    3.009689    0.042031
H     -5.518443    3.953725    1.117285
H     -2.368390   -3.872965   -2.256913
H     -1.180795   -4.103195   -0.847135
H     -3.545552   -2.176892   -0.960842
H     -3.461305   -3.736103   -0.093499
H      6.772939    3.051336   -0.548995
H      4.294661    2.060169   -0.761445
H     -1.670868   -1.402014   -2.149128
H     -0.227433   -2.473661   -2.579606
H     -1.094437    2.755035   -1.956278
H     -3.301484    3.486686   -1.149067
H      3.571063   -0.280135    2.053513
H      4.170708   -1.255072    0.624454
H     -1.604909   -3.097595    1.251214
H     -2.960905   -1.996392    1.508087
H     -0.483527   -1.858270    2.376311
H     -0.993554   -0.173751    2.295488
H      3.112715    0.140547   -0.946975
H      2.477713    1.272485    0.274332
H      1.605038   -1.047829    2.287377
H      1.059293    0.589177    1.962130
H      8.070456    1.526460    1.288640
H      0.919725    1.396467   -1.159672
H      0.129919    0.527337   -2.498966
H     -3.560793   -0.120021    1.144345
H      0.249273   -2.624796   -0.139108
H      1.438428   -1.165692   -1.672684
H      0.332566   -1.341616    0.947592
H     -0.735010    0.904966    1.326985
H      1.189915   -1.798904   -1.028584
H      0.364939    1.530180   -0.958577
H      3.729290    0.364833    0.048201
H     -3.834549   -0.035589   -0.943589
