86

C      6.215011    2.531716   -0.224120
C      1.854753   -2.769070   -1.697340
C      2.629375   -2.757029   -0.410936
C     -7.438705    0.557839    0.590819
C     -6.480156   -0.367038    0.869213
C      1.193039   -1.400897   -1.932890
C      2.047870    2.417219   -1.015413
C      3.393730    2.463888   -0.765063
C     -3.974234   -0.513122    0.586196
C      1.959591   -2.128789    0.747027
C      0.340838   -0.462907    1.614026
C     -2.887591    0.415534    0.032625
C     -1.127011   -0.467654    1.445549
C     -6.782820    1.645878    0.015614
C     -0.104527    1.271071   -0.878029
C      3.348112    0.303388    0.299612
C      1.341983    1.291621   -0.599497
C     -5.287532    0.168154    0.465646
C      4.060458    1.431701   -0.116456
C      0.296517   -1.202088   -0.758162
C      2.016511    0.265403    0.047435
C     -0.710025   -0.093862   -0.906229
C      1.145493   -0.897639    0.444449
N     -1.641126   -0.247340    0.155428
O      5.409505    1.444181    0.151599
O     -5.512533    1.345797   -0.027050
C     -1.408818    1.421544    0.071820
C      0.124514    0.361767    1.658353
C     -2.057547   -1.030699   -0.886598
C     -0.878459   -0.672071   -1.767208
C     -0.331978   -2.105355    0.504037
C      1.116647    0.662024   -1.501185
C     -1.436941   -1.051034    0.464737
C      0.805568   -1.505279   -0.283765
C     -0.565060    0.218092    0.359014
C      0.250760   -0.252574   -0.798743
O      1.879893   -2.042583   -0.385362
O      2.252798    2.246211    0.619925
O      3.244595    2.205953   -1.736312
O      3.491867    0.238505   -0.365322
S      2.504622    1.341885   -0.723163
H      5.974560    2.811808   -1.273057
H      6.030749    3.371682    0.473864
H      7.277923    2.188002   -0.159227
H      2.501906   -3.062743   -2.520360
H      0.990718   -3.476603   -1.548550
H      2.803452   -3.843034   -0.144395
H      3.651208   -2.375955   -0.647569
H     -8.501039    0.535489    0.747961
H     -6.674937   -1.334349    1.325919
H      0.647930   -1.461974   -2.897365
H      1.986135   -0.623087   -2.010927
H      1.560063    3.242300   -1.525272
H      3.979221    3.331009   -1.077046
H     -3.768663   -0.795730    1.630516
H     -3.987960   -1.415969   -0.065875
H      2.693066   -1.988478    1.552824
H      1.222402   -2.877337    1.151898
H      0.598694   -1.142605    2.480116
H      0.657316    0.551971    1.999783
H     -2.921030    1.399972    0.499815
H     -3.115499    0.480601   -1.070894
H     -1.540275   -1.438565    1.851109
H     -1.570660    0.304674    2.136299
H     -7.236263    2.553148   -0.325320
H     -0.582999    1.887032   -0.060781
H     -0.311207    1.824497   -1.813676
H      3.847423   -0.490159    0.798724
H     -0.275144   -2.140495   -0.598641
H     -1.243615   -0.261061   -1.876137
H     -2.434964    1.275101    0.465300
H     -0.972306    2.280974    0.650436
H     -1.380949    1.622664   -1.000599
H      0.067092    1.424579    2.036900
H     -0.434054   -0.212262    2.426801
H      1.158077   -0.034830    1.684204
H     -2.530327   -1.982516   -1.185158
H     -2.787377   -0.181060   -0.921997
H     -1.080453    0.163431   -2.437611
H     -0.533519   -1.562256   -2.357088
H     -0.010609   -2.316058    1.546838
H     -0.653841   -3.021169   -0.012418
H      0.491097    1.504999   -1.922812
H      1.484621    0.145101   -2.439767
H     -2.085441   -1.051932    1.313546
H      2.710491    1.908846    1.431134
