71

C      5.643317    2.321023   -1.590876
C      0.615045   -3.064265    2.303544
C      1.425001   -2.085887    3.060243
C     -5.855628   -0.281336   -0.740641
C     -4.538572   -0.443391   -1.162949
C      0.314131   -2.649991    0.863437
C      1.983867    0.339058   -2.223577
C      3.190398    0.992654   -2.036347
C     -2.714446    1.105819   -2.057599
C      1.822917   -0.850388    2.332913
C      0.139098    0.941683    1.743708
C     -1.862369    1.420320   -0.862082
C     -1.279204    0.944489    1.377566
C     -6.136924    1.064260   -0.878552
C     -0.040278   -0.793622   -1.412564
C      2.864385    0.752466    0.304341
C      1.249348   -0.090426   -1.147378
C     -4.099838    0.790925   -1.528468
C      3.626111    1.196378   -0.756441
C     -0.237706   -1.279039    0.967838
C      1.657622    0.098830    0.127932
C     -0.969244   -0.774291   -0.264903
C      0.878452   -0.338483    1.320105
N     -1.666062    0.393312    0.090057
O      4.832550    1.850655   -0.560988
O     -5.078154    1.668370   -1.345907
C      0.710835   -0.541532   -0.137285
C     -0.676431   -0.316777    0.430942
C      1.684791    0.501327    0.234958
C     -1.338058    0.907190   -0.012260
O      1.129124   -1.758070    0.464397
O     -1.410069   -1.455309    0.033509
O      1.635202    1.700113   -0.198145
O      2.721198    0.174883    1.106299
O     -0.871771    2.022720    0.296201
O     -2.490178    0.887282   -0.779793
H      5.088440    2.786599   -2.434379
H      6.286047    3.153335   -1.177863
H      6.376040    1.546797   -1.944055
H      1.061106   -4.099104    2.310739
H     -0.384522   -3.199990    2.778709
H      2.346642   -2.610677    3.418915
H      0.885712   -1.813216    4.005353
H     -6.535185   -1.030747   -0.378122
H     -4.018566   -1.377203   -1.179107
H     -0.380390   -3.418128    0.480949
H      1.261175   -2.709548    0.261831
H      1.651203    0.185117   -3.241645
H      3.751880    1.321254   -2.905270
H     -2.841491    2.092882   -2.607595
H     -2.399798    0.317968   -2.718864
H      2.835161   -1.054591    1.870827
H      2.022523   -0.049609    3.070229
H      0.666662    1.855329    1.400952
H      0.198283    1.007423    2.873452
H     -2.444172    2.228114   -0.311974
H     -0.925263    1.953460   -1.150845
H     -1.949434    0.515719    2.185790
H     -1.613856    2.025045    1.352113
H     -7.075009    1.539611   -0.640554
H     -0.420319   -0.570886   -2.393414
H      0.297826   -1.891579   -1.503268
H      3.210332    0.914751    1.326076
H     -0.973563   -1.260344    1.797005
H     -1.741282   -1.586900   -0.468396
H      0.695807   -0.753614   -1.223917
H     -0.583537   -0.377506    1.531327
H      0.346339   -2.356802    0.527390
H     -2.166932   -1.168331   -0.553284
H      3.416207    0.871858    1.398409
H     -2.802526    1.662567   -1.354548
