79

C     -4.812683   -1.640309   -0.033345
C     -6.450348    2.329184   -0.519179
C      6.514591    2.995933    0.266384
C     -5.179101   -0.306830   -0.605244
C     -4.999882    2.129700   -0.824529
C      2.509209   -3.506358    0.587941
C      3.541343   -2.639508   -0.148238
C      1.597311   -2.563901    1.312919
C      2.848534    1.707020    1.927118
C      4.039575    2.137701    1.402679
C     -2.961025    0.929814   -0.334757
C      2.782879   -1.936171   -1.230111
C      1.027097   -0.239110   -1.659890
C     -2.128833   -0.117082    0.295893
C     -0.424948   -0.110001   -1.315439
C      0.881935    0.280384    1.870305
C      3.809745    0.569418   -0.409446
C     -4.435272    0.873995   -0.131391
C      2.143531    0.696176    1.263056
C      4.525907    1.575945    0.238464
C      0.910033   -1.665731    0.310604
C      2.604659    0.129188    0.115064
C      0.039983   -0.636873    1.010156
C      1.849555   -0.927881   -0.576337
N     -0.689015    0.115882    0.054382
O      5.727811    1.984976   -0.323010
C      0.590549   -1.097057   -0.261172
C     -0.800871   -0.654567    0.149923
C      1.610271   -0.111337    0.190629
C     -1.185214    0.611103   -0.537213
O      0.611585   -1.240969   -1.642960
O     -0.895403   -0.489789    1.526840
O      2.357213    0.472195   -0.652158
O      1.781739    0.203180    1.527302
O     -1.168131    0.676757   -1.791585
O     -1.564747    1.725867    0.207599
H     -5.786231   -2.222019    0.115414
H     -4.253263   -2.302604   -0.726757
H     -4.366511   -1.513719    0.962368
H     -7.137380    1.890503   -1.245142
H     -6.635233    3.430840   -0.479982
H     -6.628044    1.975429    0.523570
H      6.093092    4.005120    0.072266
H      7.575265    2.947879   -0.114065
H      6.582677    2.782262    1.349021
H     -5.128498   -0.360599   -1.741964
H     -6.271801   -0.132067   -0.356079
H     -4.870573    2.049560   -1.921141
H     -4.430235    2.979674   -0.400876
H      3.041690   -4.203476    1.267862
H      1.923596   -4.041998   -0.175898
H      3.883497   -1.898412    0.633463
H      4.387435   -3.240959   -0.492099
H      2.122157   -1.978216    2.099086
H      0.806311   -3.162195    1.812505
H      2.483641    2.149947    2.830686
H      4.630147    2.932989    1.892177
H     -2.583940    1.924832    0.020566
H     -2.765081    0.883966   -1.452971
H      3.382372   -1.536764   -2.041677
H      2.104205   -2.700672   -1.687602
H      1.426165    0.787461   -1.871188
H      1.094901   -0.796842   -2.613777
H     -2.352793   -1.151952   -0.108136
H     -2.341046   -0.166385    1.377448
H     -0.974951   -1.005710   -1.732956
H     -0.806775    0.764680   -1.897790
H      0.262708    1.216927    1.998311
H      1.038722   -0.106163    2.888042
H      4.202746    0.153342   -1.303939
H     -4.611413    0.986234    0.975635
H      0.240893   -2.293619   -0.302332
H     -0.611041   -1.212834    1.706441
H      0.782960   -2.073233    0.210994
H     -1.523785   -1.444885   -0.135797
H      0.904534   -0.387042   -2.084348
H     -1.648822    0.126142    1.743547
H      2.094877    1.129835    1.802302
H     -1.946755    2.553799   -0.253901
