66

C     -5.807871    3.966310    1.214410
C      8.010829    2.057127   -2.996199
C      6.686474   -1.869067   -0.989965
C     -3.521143   -3.284956    1.933921
C     -4.570286   -2.472981    1.224324
C     -2.261297   -2.485433    2.034897
C      3.424294    2.025880   -1.420915
C     -2.226607    1.892409    1.885068
C     -3.412072    2.550532    1.667064
C      4.628574    2.401387   -1.977632
C      1.911949    0.399247   -0.357577
C     -4.091980   -2.086280   -0.160520
C     -2.330695   -0.956236   -1.491442
C      1.260513   -0.786555   -0.922162
C     -1.004485   -0.238590   -1.393132
C      4.278735   -0.115084   -0.864465
C     -0.751065   -0.046231    1.548050
C     -4.210822    0.724334    0.390106
C      3.228637    0.796402   -0.869355
C     -2.051796    0.617323    1.325127
C     -4.415358    2.012051    0.937917
C     -1.812597   -2.086246    0.657808
C     -3.027223    0.036337    0.591504
C     -0.517408   -1.276104    0.711229
C      5.705591    1.544529   -2.006281
C      5.475349    0.228537   -1.406410
C     -2.816356   -1.295306   -0.083394
N     -0.087907   -1.010370   -0.571233
O     -5.597559    2.662676    0.709802
O      6.873765    1.767699   -2.493523
O      6.592348   -0.519074   -1.496192
H     -5.527996    4.093283    2.260984
H     -6.879487    4.238686    1.018668
H     -5.239527    4.689333    0.534066
H      8.863894    2.234569   -2.260026
H      8.037264    2.956511   -3.691678
H      8.415477    1.176638   -3.624243
H      5.979384   -2.474427   -1.630077
H      7.677831   -2.293915   -1.120520
H      6.287838   -1.898085    0.031733
H     -3.328245   -4.223349    1.376319
H     -3.900445   -3.577420    2.944600
H     -4.806765   -1.602607    1.856008
H     -5.469673   -3.085021    1.114790
H     -1.465683   -3.108461    2.492908
H     -2.458403   -1.605080    2.694306
H      2.574564    2.719223   -1.388175
H     -1.421243    2.316708    2.457752
H     -3.524696    3.536398    2.121948
H      4.726484    3.399225   -2.395812
H      1.242946    1.298591   -0.416582
H      2.062614    0.232744    0.761415
H     -4.889938   -1.654470   -0.763445
H     -3.815288   -3.053706   -0.667071
H     -2.229979   -1.863720   -2.069494
H     -3.101900   -0.315195   -1.935098
H      1.843171   -1.697964   -0.581727
H      1.334460   -0.845060   -2.047100
H     -0.532931   -0.132499   -2.377066
H     -1.126655    0.733451   -0.930328
H      4.142184   -1.131981   -0.446080
H     -0.698521   -0.319217    2.648983
H      0.007528    0.743126    1.461723
H     -4.977982    0.268228   -0.179034
H     -1.588933   -3.011057    0.089846
H      0.226121   -1.897745    1.248352
