86

C      5.149008   -3.608514    0.270067
C      1.189802    3.821662   -0.891666
C      2.460334    3.386242   -0.269516
C     -6.468868   -1.834153    0.577208
C     -5.145249   -1.478939    0.826054
C      0.522749    2.570794   -1.487746
C      1.581386   -2.069634   -1.384638
C      2.726175   -2.590062   -0.871281
C     -3.404183   -0.128692   -0.438093
C      2.420321    2.231114    0.653712
C      0.743309    0.906849    1.865990
C     -2.525907   -0.452984    0.733801
C     -0.361117   -0.103985    1.720018
C     -6.784202   -1.282071   -0.628891
C     -0.133390   -0.336047   -1.540757
C      2.947969   -0.633976    0.497092
C      1.119100   -0.834386   -0.959705
C     -4.759194   -0.734421   -0.255959
C      3.424711   -1.879992    0.076359
C      0.154911    1.760723   -0.294855
C      1.792387   -0.097431   -0.015233
C     -0.781598    0.608881   -0.565733
C      1.344749    1.229951    0.478805
N     -1.230706    0.079690    0.643321
O      4.595210   -2.380258    0.622207
O     -5.736287   -0.624950   -1.108687
C     -1.254068    0.049534    1.733630
C     -1.610252    1.754314   -0.077033
C     -0.792426   -1.831365   -0.242605
C      0.563746   -1.227121    0.161267
C     -1.272700   -0.136383   -1.918579
C      1.230303    1.186422    0.441537
C     -1.688920   -0.666787   -0.577773
C      0.131117    0.340691   -1.633031
C     -1.073884    0.421461    0.322211
C      0.361677    0.206122   -0.189708
O      0.830065    0.739547   -2.548850
O      3.508291   -0.477584    0.689116
O      3.348865    1.170459   -1.264291
O      3.669665    2.076911    0.950336
S      2.950783    1.010471    0.144279
H      5.767437   -3.970841    1.129803
H      5.781169   -3.529953   -0.639387
H      4.383963   -4.395760    0.104580
H      0.474466    4.164633   -0.099608
H      1.393251    4.565886   -1.659256
H      2.871010    4.271255    0.302626
H      3.213965    3.253309   -1.098765
H     -7.107248   -2.414983    1.194527
H     -4.554876   -1.736903    1.686383
H      1.220866    2.087363   -2.185857
H     -0.401883    2.898413   -1.979988
H      1.040228   -2.655046   -2.141097
H      3.078681   -3.575705   -1.222767
H     -3.583336    0.969695   -0.476051
H     -3.055940   -0.467034   -1.410325
H      2.480368    2.579349    1.727933
H      3.411765    1.702409    0.516258
H      0.459445    1.843375    2.352440
H      1.554233    0.443326    2.463568
H     -3.014718   -0.062898    1.668637
H     -2.465616   -1.558956    0.875967
H      0.062706   -1.126173    1.727843
H     -0.963211   -0.021923    2.673497
H     -7.714099   -1.328307   -1.169963
H      0.150926    0.292107   -2.428319
H     -0.842873   -1.124272   -1.801076
H      3.563535   -0.134700    1.264506
H     -0.390231    2.445109    0.404723
H     -1.655401    1.061813   -1.121527
H     -0.367545   -0.060081    2.347095
H     -1.885237   -0.881540    1.824559
H     -1.887119    0.843597    2.228582
H     -1.055105    2.191421   -0.945194
H     -2.692296    1.621022   -0.329166
H     -1.580016    2.422071    0.807948
H     -0.615531   -2.412238   -1.179955
H     -1.170571   -2.450079    0.579599
H      0.759246   -1.342871    1.231903
H      1.389984   -1.701149   -0.435066
H     -1.291233   -0.924171   -2.674858
H     -1.880927    0.763207   -2.206343
H      0.889379    2.208772    0.175710
H      1.089975    1.127709    1.559719
H     -2.736430   -0.814213   -0.419507
H      4.131164   -0.399326    1.444467
