47

C     -2.593819   -3.003412   -0.294195
C      4.745310    0.668077   -0.950067
C     -1.705873    2.838482    0.522150
C     -0.937131    2.886858   -0.764787
C     -1.615341    1.504948    1.220127
C      0.158678    1.867154   -0.855712
C     -0.443628   -0.380033   -1.792708
C     -1.630504   -1.284545   -1.668381
C      1.590615   -1.523595    2.036891
C     -0.848813   -1.285726    1.795362
C      2.094647    0.110490   -0.135207
C      0.528206   -0.977125    1.347083
C     -1.621734    0.439327    0.175648
C      0.784721   -0.168560    0.272091
C      2.882358   -1.238003    1.621502
C     -1.860765   -0.940212    0.703285
C      3.153636   -0.430740    0.547792
C     -0.289764    0.469370   -0.538066
Br     4.347861   -1.997958    2.581187
N     -1.677197   -1.885866   -0.357025
O      4.469670   -0.154446    0.143963
Br     0.759629    0.000000    0.000000
H     -2.714975   -3.304955    0.757513
H     -3.562982   -2.793548   -0.780416
H     -2.136167   -3.866173   -0.831989
H      4.121697    0.446777   -1.819847
H      4.678561    1.737644   -0.617500
H      5.835971    0.521655   -1.197194
H     -1.452219    3.684666    1.209635
H     -2.785080    2.988954    0.269711
H     -1.583878    2.793727   -1.661443
H     -0.459982    3.890711   -0.831074
H     -0.750375    1.445638    1.912454
H     -2.520624    1.388507    1.858400
H      0.521251    1.864008   -1.905188
H      1.007871    2.206236   -0.223001
H      0.469657   -1.000444   -1.973802
H     -0.537270    0.324348   -2.635870
H     -1.475449   -2.126238   -2.393120
H     -2.570837   -0.798204   -1.969310
H      1.438892   -2.174193    2.900266
H     -0.934087   -2.383783    1.952360
H     -1.125510   -0.776960    2.737803
H      2.287587    0.743529   -0.976631
H     -2.404591    0.673869   -0.559692
H     -2.878596   -1.000258    1.167003
H     -0.759629    0.000000    0.000000
