58

C      3.559888   -1.755392    1.112038
C      7.050729   -0.234541   -0.800009
C     -2.212557    2.705131   -2.113883
C     -3.134542    2.897679   -0.967242
C     -1.361621    1.454490   -1.947821
C     -1.770619   -2.774303   -0.509242
C     -3.028167   -3.243644   -0.215051
C      2.784180    0.481178    0.658393
C     -3.417476    1.667490   -0.167649
C     -1.886504    1.093040    1.734265
C      1.702353    0.303962    1.663341
C     -0.650926    0.277977    2.070302
C     -0.130252   -0.969424   -0.687909
C     -3.725917   -1.042362    0.371557
C      4.749304   -0.257737   -0.641550
C      3.667534   -0.475162    0.384360
C     -1.512873   -1.421777   -0.353455
C     -4.021196   -2.401341    0.225856
C     -1.003877    1.356259   -0.508393
C     -2.474771   -0.550301    0.083201
C      0.156266    0.435949   -0.215809
C     -2.225250    0.902718    0.259416
N      0.406012    0.443326    1.161620
O     -5.301766   -2.849553    0.530546
O      5.960760   -0.409744    0.035181
Cl     0.689540    0.000000    0.000000
H      2.611620   -2.258820    0.904370
H      4.385025   -2.420353    0.758750
H      3.654645   -1.593008    2.219870
H      6.983869   -1.010687   -1.616143
H      7.963806   -0.458251   -0.236469
H      7.069800    0.761302   -1.287963
H     -2.694999    2.754778   -3.105687
H     -1.475908    3.561501   -2.099033
H     -2.821145    3.722073   -0.265855
H     -4.122749    3.248503   -1.384149
H     -0.493140    1.457017   -2.632258
H     -2.041129    0.594708   -2.196342
H     -0.986012   -3.446356   -0.858762
H     -3.241429   -4.283215   -0.330259
H      2.893322    1.408834    0.105246
H     -4.005776    1.967431    0.727401
H     -4.117562    1.014335   -0.763394
H     -1.653119    2.167301    1.867454
H     -2.718741    0.829225    2.396630
H      1.806596   -0.747281    2.066650
H      1.948981    0.946179    2.537290
H     -0.380550    0.410472    3.135066
H     -0.993534   -0.798378    2.004547
H      0.082407   -1.102648   -1.769050
H      0.547825   -1.645049   -0.128362
H     -4.542975   -0.404939    0.724642
H      4.656930    0.738854   -1.088982
H      4.677661   -1.070890   -1.375848
H     -0.729081    2.360795   -0.099731
H      0.996609    0.803206   -0.847887
H     -5.439958   -3.140556    1.504338
H     -0.689540    0.000000    0.000000
