58

C     -1.937073   -2.661473    1.341573
C     -1.928630    2.347959   -1.396641
C     -1.085498    2.955255   -0.335503
C     -1.435176    0.928721   -1.658024
C      2.295894   -1.887757   -1.145796
C      3.527356   -1.379388   -0.778619
C      0.194169    2.225936   -0.057529
C     -0.161935    0.568934    1.793104
C     -1.084474   -0.601441    2.011173
C     -0.141342   -1.756163   -1.205404
C      2.441512    0.475229    0.250335
C      1.153709   -1.190403   -0.799772
C      3.612376   -0.199821   -0.081012
C     -1.265724    0.297052   -0.322618
C      1.197275   -0.006497   -0.101887
C     -1.210090   -1.196785   -0.323703
C      0.015531    0.791848    0.302266
N     -0.961173   -1.634599    1.022251
O      4.867404    0.277633    0.269315
C     -0.471873   -0.435703    0.274573
C      0.537396    0.569089   -0.226279
C     -1.834450    0.141790    0.118731
C      1.920642    0.154147   -0.027848
O     -0.402784   -1.641579   -0.382118
O      0.291295    0.785348   -1.565648
O     -2.739844   -0.428698   -0.523948
O     -2.148045    1.370961    0.702241
O      2.678999    0.047512   -1.021468
O      2.484019   -0.141383    1.207118
H     -1.993526   -3.336441    0.458222
H     -1.641273   -3.278957    2.207044
H     -2.962904   -2.214641    1.465808
H     -2.030112    2.934116   -2.314630
H     -2.970122    2.237965   -0.974361
H     -0.799349    3.991468   -0.662537
H     -1.622174    3.102522    0.630734
H     -0.449135    1.012280   -2.191757
H     -2.127153    0.391263   -2.328291
H      2.196099   -2.812721   -1.694669
H      4.407114   -1.948003   -1.063684
H      0.819568    2.287889   -0.978731
H      0.744918    2.813732    0.714560
H     -0.648489    1.491507    2.191432
H      0.816451    0.422206    2.284248
H     -0.761158   -1.067616    2.987470
H     -2.130191   -0.275883    2.190211
H     -0.350829   -1.640786   -2.286073
H     -0.116838   -2.865220   -1.026847
H      2.576075    1.400286    0.801211
H     -2.097872    0.596197    0.347105
H     -2.197503   -1.567701   -0.719263
H      5.244292   -0.027702    1.179289
H     -0.320222   -0.623684    1.365147
H      0.326509    1.522500    0.304598
H     -0.665961   -2.360513    0.239368
H      0.070202   -0.028594   -2.052229
H     -2.857317    1.993340    0.308443
H      3.131435   -0.924533    1.279318
