37

C      4.864335    1.653613   -1.330241
C     -5.931058    1.520674   -0.571064
C      1.808065    0.420690    1.032506
C      2.021059   -1.666843   -0.075226
C      0.538695    0.062090    1.464633
C      0.775386   -2.020707    0.347928
C     -4.874758    1.271467    0.273063
C     -5.478793   -0.474949   -1.789463
C     -2.623029   -2.121721   -0.321145
C      4.522424    1.066078    0.050679
C     -6.241846    0.657852   -1.602367
C      2.556501   -0.434417    0.263608
C      0.029206   -1.175460    1.110992
C     -4.110368    0.127266    0.077838
C     -4.405720   -0.747259   -0.947886
C     -2.317193   -1.248289    0.714187
C      5.835603    0.835659    0.703592
Cl    -7.597041    0.964351   -2.695997
N     -3.665047   -1.861102   -1.141477
N     -3.069722   -0.154809    0.878855
O      6.554128    1.829140    0.950047
O      6.300815   -0.417359    1.050873
O      3.812319   -0.102252   -0.174747
O     -1.238423   -1.556084    1.531732
H      5.163045    0.766372   -1.949301
H      3.998778    2.182712   -1.739244
H      5.736964    2.310846   -1.208362
H     -6.513140    2.408789   -0.408330
H      2.165455    1.406072    1.337024
H      2.601461   -2.346586   -0.679533
H     -0.028436    0.765422    2.073834
H      0.359147   -2.986337    0.080848
H     -4.606891    1.937163    1.096658
H     -5.697760   -1.166586   -2.586292
H     -2.034530   -3.002359   -0.471290
H      3.998365    1.816130    0.661803
H      6.792004   -0.519267    1.931937
