80

C      5.973950    2.120009    1.571302
C      6.940300    0.050985    0.630781
C      5.426627   -0.117537    2.545440
C     -1.606646   -5.569625    1.372764
C     -2.705479   -4.846205    1.795973
C     -0.901483   -5.110983    0.287561
C     -7.921810    3.184958    0.328859
C     -7.849853    1.830947    0.169313
C     -3.093530   -3.679141    1.141375
C     -1.295587   -3.949584   -0.355853
C     -6.764990    3.900877    0.619176
C     -6.608471    1.203691    0.303840
C      3.369472   -1.991141   -2.106363
C      2.063745   -1.344822   -1.668861
C     -2.785007   -2.006473   -0.651158
C     -0.667889   -0.940738   -0.209675
C     -4.171315    3.819840    1.057171
C      3.657624    0.269845   -2.873891
C      1.614030    0.068917    0.204979
C     -2.389008   -3.218056    0.054566
C     -5.534222    3.276699    0.751421
C     -2.166135   -0.722591   -0.076349
C      0.138631    0.196177    0.286014
C     -5.465731    1.912552    0.590917
C      3.142321    0.828050   -1.534798
C     -3.505976    2.591026    1.630996
C     -4.030213    1.496650    0.780512
C     -2.647587    0.392175   -0.908158
C      4.346892    1.080650   -0.717683
C      5.696154    0.676868    1.258502
N      4.290232   -0.991200   -2.542278
N     -3.419101    1.262763   -0.461855
N      4.568936    0.498319    0.403402
N      2.242235   -0.111918   -1.016481
O     -0.155210    0.358059    1.662727
O     -2.147951    2.702867    1.725005
O     -2.221296    0.458678   -2.226453
O      5.284133    1.985262   -1.176421
H      5.313915    2.818107    1.007925
H      5.843108    2.274676    2.667458
H      7.022456    2.344212    1.353671
H      7.765917    0.821154    0.575590
H      7.349759   -0.778826    1.241453
H      6.749352   -0.342044   -0.381202
H      6.123393    0.211042    3.339905
H      4.388951   -0.018906    2.861128
H      5.637792   -1.173908    2.297036
H     -1.328533   -6.475859    1.902271
H     -3.280217   -5.179485    2.646932
H     -0.031413   -5.670635   -0.061140
H     -8.866545    3.729525    0.236706
H     -8.732935    1.238652   -0.059655
H     -3.952597   -3.161748    1.513220
H     -0.724869   -3.604020   -1.209460
H     -6.792439    4.973138    0.750454
H     -6.572137    0.136601    0.177673
H      3.770371   -2.639763   -1.297977
H      3.138527   -2.679926   -2.943177
H      1.620827   -2.080597   -0.945417
H      1.441307   -1.293105   -2.593346
H     -2.513054   -2.083080   -1.730059
H     -3.894140   -1.884783   -0.570326
H     -0.521336   -1.162832   -1.296300
H     -0.435497   -1.820702    0.431041
H     -3.628019    4.160095    0.169275
H     -4.195158    4.603273    1.835311
H      4.420321    0.972836   -3.238150
H      2.812255    0.154632   -3.573286
H      1.880850   -0.825053    0.861485
H      2.129284    0.915492    0.762412
H     -2.408865   -0.667733    0.980723
H     -0.260724    1.122346   -0.182923
H      2.656711    1.815234   -1.696861
H     -3.965787    2.459972    2.654796
H     -4.031932    0.549483    1.393708
H      4.858746   -1.279853   -3.366812
H      0.336145    1.089202    2.067948
H     -1.876377    3.577737    2.059228
H     -2.221884    1.372220   -2.699900
H      6.273677    1.916375   -0.996794
