80

C      4.394284   -2.692293    0.430723
C      6.452013   -2.366902   -0.816193
C      6.539429   -2.736243    1.598218
C     -5.495189    3.063185    3.292069
C     -5.546332    2.822170    1.939133
C     -4.312793    3.151366    4.004306
C     -5.873172   -3.641863   -0.203373
C     -4.606176   -4.069992    0.141474
C     -4.339498    2.660834    1.265470
C     -3.121494    2.990397    3.331621
C     -6.038494   -2.466508   -0.893466
C     -3.549101   -3.272278   -0.236962
C      2.219745    0.502061   -2.797564
C      2.004880   -0.278745   -1.507420
C     -1.866004    2.558659    1.195056
C     -0.113758    0.986640    0.422143
C     -4.895860   -0.363253   -2.013723
C      4.433276    1.097403   -1.985957
C      2.313524    1.589818    0.025551
C     -3.155223    2.745323    1.961227
C     -4.986329   -1.660863   -1.276776
C     -1.386353    1.152651    1.223002
C      1.063795    1.744548    0.834971
C     -3.721581   -2.086692   -0.933700
C      4.121832    0.220166   -0.793531
C     -3.493747   -0.419932   -2.543642
C     -2.744990   -1.118357   -1.425480
C     -2.404383    0.269576    0.581323
C      5.081856    0.303216    0.298545
C      5.743218   -2.038207    0.478553
N      3.301266    1.407243   -2.778092
N     -2.126868   -0.264584   -0.514793
N      5.737406   -0.656428    0.801908
N      2.724112    0.327814   -0.418086
O      0.888582    3.116021    1.073767
O     -2.963881    0.832759   -2.831792
O     -3.623518    0.036300    1.164388
O      5.322949    1.572670    0.869189
H      3.580391   -2.032551    0.792538
H      4.364222   -3.581244    1.117656
H      4.159426   -3.141846   -0.576844
H      7.514894   -2.572403   -0.571232
H      6.060479   -3.284179   -1.294001
H      6.481517   -1.489383   -1.496204
H      7.458766   -2.159264    1.826913
H      6.880615   -3.732901    1.252237
H      5.897794   -2.887087    2.483069
H     -6.418895    3.193471    3.840568
H     -6.484479    2.758715    1.412048
H     -4.268871    3.340326    5.067260
H     -6.720397   -4.257375    0.084767
H     -4.464058   -4.998692    0.688648
H     -4.365881    2.476470    0.207324
H     -2.160738    3.045554    3.819598
H     -7.055851   -2.159312   -1.148414
H     -2.555479   -3.626903    0.044634
H      1.255884    1.056016   -2.975279
H      2.313824   -0.185296   -3.661630
H      2.576126   -1.253784   -1.703923
H      0.992808   -0.582126   -1.374020
H     -1.171175    3.279417    1.720193
H     -1.989845    2.969028    0.176595
H     -0.410231    1.170527   -0.629906
H      0.116422   -0.129359    0.589097
H     -4.934533    0.474278   -1.262613
H     -5.672029   -0.264561   -2.781401
H      4.886621    2.074501   -1.643311
H      5.212735    0.630345   -2.628076
H      2.137836    2.281734   -0.879971
H      3.117731    2.123438    0.629697
H     -1.209929    0.802665    2.286809
H      1.346487    1.368779    1.902931
H      4.212250   -0.839475   -1.197307
H     -3.497126   -1.100038   -3.416973
H     -1.897279   -1.664621   -1.976459
H      3.144668    2.375289   -3.052211
H      1.635024    3.474368    1.615774
H     -3.675134    1.306634   -3.374271
H     -4.035014   -0.882332    1.292225
H      5.663005    1.605496    1.831377
