92

C     -6.517469    3.612246    1.405900
C     -5.121900    3.766821    0.790392
C      5.295410    3.931052   -0.706522
C      5.831250    4.239872   -2.035745
C     -4.120359   -0.550704   -3.103970
C      3.670432   -0.593081    3.153415
C     -3.788313   -1.769335   -3.693290
C      3.402555   -1.876838    3.602421
C     -4.670424   -1.747993    1.023146
C      4.825501   -1.551624   -1.081377
C     -5.243255   -0.647081    1.819752
C      5.766968   -0.419187   -0.880692
C     -4.307688    0.830866   -1.010353
C      3.950791    0.997388    1.229354
C     -1.556977    0.279182    0.298773
C      1.595003    0.360990   -0.609636
C     -5.154809    1.602680    2.308609
C      5.558791    1.673563   -1.973311
C     -5.298430    3.043947    2.046103
C      4.933655    3.067577   -1.875613
C     -3.982640   -0.409212   -1.726607
C      3.697589   -0.328324    1.796020
C     -0.629163   -0.873276    0.050652
C      0.703295   -0.821702   -0.335902
C     -3.325116   -2.838909   -2.938049
C      3.159443   -2.905476    2.702249
C     -3.962090    0.831145    0.436635
C      3.944827    1.030299   -0.275567
C     -3.530464   -1.480245   -1.056222
C      3.452813   -1.378128    0.964326
C     -0.985435   -2.175490    0.173554
C      1.138907   -2.111895   -0.442896
C     -3.184907   -2.701326   -1.554242
C      3.183609   -2.652607    1.337908
C     -2.378947   -2.602045    0.585400
C      2.548110   -2.462055   -0.847394
C     -3.332652   -1.491408    0.400105
C      3.461321   -1.316675   -0.515011
C     -2.874049   -0.141415    0.837980
C      2.994486    0.023434   -0.906498
N      0.104786   -2.913628   -0.131170
N     -5.180022    0.679651    1.210226
N      5.222502    0.881079   -0.854059
O     -2.991577   -4.054988   -3.512337
O      2.890758   -4.191577    3.146443
O     -2.774030   -0.153460    2.222003
O      3.184303    0.151725   -2.301527
O     -2.776519   -3.483624   -0.490616
O      2.992404   -3.394455    0.169925
H     -6.957844    4.555496    1.784653
H     -7.246202    2.972132    0.894568
H     -5.073663    3.370769   -0.222713
H     -4.688126    4.816895    0.832335
H      4.454843    4.478541   -0.241755
H      5.915395    3.403866    0.064022
H      5.482191    5.182713   -2.507965
H      6.935337    4.097994   -2.156478
H     -4.481908    0.292195   -3.672994
H      3.862876    0.218668    3.851968
H     -3.900395   -1.868186   -4.772072
H      3.393830   -2.029566    4.670198
H     -5.411697   -2.136360    0.278631
H     -4.520685   -2.620054    1.726297
H      4.738693   -1.766487   -2.169197
H      5.256346   -2.471870   -0.602768
H     -6.359888   -0.845794    1.879938
H     -4.944300   -0.623014    2.887074
H      6.500576   -0.449974   -1.745694
H      6.429057   -0.644188    0.002904
H     -3.840191    1.683117   -1.567458
H     -5.406070    1.002724   -1.110178
H      3.196290    1.712707    1.595151
H      4.974927    1.310452    1.578486
H     -1.706257    0.875100   -0.624538
H     -1.009927    0.945230    1.003961
H      1.119492    0.899799   -1.456588
H      1.564593    1.073504    0.242343
H     -5.969335    1.331856    3.068502
H     -4.221468    1.447645    2.944409
H      5.151981    1.215422   -2.896710
H      6.653390    1.761867   -2.157172
H     -4.988815    3.664555    2.964034
H      3.909430    3.134719   -2.288489
H     -3.511154    1.849859    0.659590
H      3.546548    2.037417   -0.598802
H     -2.386523   -3.114024    1.545317
H      2.633394   -2.877341   -1.841448
H      0.105294   -3.959935   -0.115587
H     -2.655375   -4.822790   -2.949019
H      2.715664   -4.934230    2.486458
H     -1.838306   -0.102233    2.533824
H      2.755711    0.965048   -2.649720
