48

C      5.206565    0.906446    0.548328
C      1.591381   -2.579993   -0.532017
C     -3.832766    1.325905   -1.956289
C      5.217189   -0.580580    0.263559
C      3.858729   -1.174423    0.491138
C     -3.106028   -0.290184    2.324865
C      2.853046   -0.502479   -0.433388
C     -3.934638    0.101819    1.109148
C     -2.226480    0.948262    2.475883
C      0.547534   -0.419217   -1.137323
C     -0.718728    0.338541    0.757060
C      1.471591   -1.092679   -0.215377
C     -0.479714    0.252746   -0.695334
C     -3.002441    1.028067    0.355499
C     -1.448722    0.955335   -1.594571
C     -2.835724    0.608926   -1.067522
N     -1.821898    1.173604    1.106917
O     -1.263799    2.318353   -1.404756
O     -3.077529   -0.769930   -1.223063
H      4.702406    1.074175    1.500722
H      4.723337    1.408696   -0.320481
H      6.278409    1.226006    0.584042
H      1.970800   -3.089195    0.391749
H      2.288923   -2.735690   -1.381082
H      0.616760   -2.988926   -0.842880
H     -4.243295    0.660599   -2.741408
H     -3.427641    2.216063   -2.440222
H     -4.711784    1.655904   -1.351488
H      5.543757   -0.768804   -0.782105
H      5.961283   -1.106463    0.906958
H      3.888443   -2.256417    0.264636
H      3.547526   -1.065265    1.538674
H     -3.761135   -0.432560    3.222060
H     -2.503791   -1.203332    2.142553
H      3.198665   -0.608901   -1.472733
H      2.855918    0.595641   -0.195538
H     -4.830100    0.618533    1.503478
H     -4.246017   -0.769221    0.512197
H     -2.900034    1.781754    2.761476
H     -1.398486    0.782650    3.167240
H      0.744812   -0.497104   -2.201011
H     -0.792133   -0.702336    1.152354
H      0.172073    0.777068    1.297647
H      1.238073   -1.003431    0.837205
H     -3.520241    2.033442    0.337068
H     -1.347405    0.623803   -2.626045
H     -0.774679    2.525505   -0.560638
H     -2.272010   -1.300714   -1.001113
