52

C     -0.258277    2.052874   -0.698652
C     -0.450123   -0.387750   -2.186227
C      6.766134   -0.068800   -0.927622
C     -6.739560    1.116131    0.028329
C      4.977189    0.174399    0.728756
C     -4.733694   -0.249601    0.219672
C      8.106203   -0.235427   -1.230525
C     -8.076441    1.367937    0.219708
C      4.005584    0.276996   -0.145649
C     -4.050301   -1.321956    0.578810
C      7.331315   -0.099068    1.354581
C     -6.922484   -0.968470    1.080801
C      0.218334    0.733718   -0.137487
C     -0.571578   -0.418103   -0.674080
C      6.365503    0.001195    0.378486
C     -6.134700   -0.049403    0.451048
C      9.059063   -0.334198   -0.258567
C     -8.876622    0.410635    0.870884
C      8.671544   -0.265374    1.072244
C     -8.298954   -0.759860    1.302379
C      2.630337    0.450249    0.302294
C     -2.603186   -1.427642    0.290864
O     10.401796   -0.500933   -0.548480
O    -10.207709    0.678564    1.053095
O      9.577650   -0.357465    2.106963
O     -9.037536   -1.735922    1.948206
O      2.372508    0.501797    1.532405
O     -1.936374   -2.424191    0.617164
O      1.561179    0.564703   -0.565724
O     -1.917214   -0.424434   -0.355677
H      0.595914    2.733015   -0.961208
H     -0.834494    1.928987   -1.637376
H     -0.837945    2.605080    0.076120
H      0.222961    0.414963   -2.536186
H     -0.106273   -1.355383   -2.598917
H     -1.446374   -0.172884   -2.671023
H      6.079294    0.000096   -1.766610
H     -6.139412    1.860792   -0.472982
H      4.727406    0.222526    1.811309
H     -4.130053    0.518605   -0.293790
H      8.427225   -0.291292   -2.263722
H     -8.576741    2.270318   -0.100067
H      4.206331    0.235402   -1.191600
H     -4.550663   -2.125312    1.085093
H      7.031423   -0.045586    2.397619
H     -6.528221   -1.898838    1.438986
H      0.258180    0.747503    0.979387
H     -0.036748   -1.356521   -0.345015
H     10.682040   -0.550585   -1.503756
H    -10.830121    0.048090    1.504321
H     10.560022   -0.478911    1.927927
H    -10.003332   -1.610665    2.113907
