48

C      5.659027    0.217733   -0.226506
C      2.502860   -1.215343   -1.217668
C     -2.133595    1.730595    1.727082
C      4.616998   -0.150728    0.812122
C      3.522015    0.834171    0.931550
C     -4.251338   -1.349764   -0.824048
C      2.650165    1.098265   -0.225741
C     -4.577684    0.093344   -0.489889
C     -2.947816   -1.219473   -1.573319
C      0.770797   -0.336469    0.316207
C     -1.030858    0.206443   -1.241482
C      1.794876   -0.008132   -0.736814
C     -0.526063   -0.232034    0.066499
C     -3.195218    0.699149   -0.294224
C     -1.554831   -0.560492    1.120946
C     -2.667534    0.461378    1.082693
N     -2.449308    0.098059   -1.344131
O     -0.978806   -0.487867    2.396770
O     -3.705651    0.001374    1.891825
H      6.400686    0.929892    0.202223
H      5.172359    0.671879   -1.100465
H      6.144182   -0.722291   -0.553522
H      1.966560   -1.702786   -2.091942
H      3.509317   -0.990583   -1.540219
H      2.512049   -2.032189   -0.459533
H     -2.900589    2.526991    1.669445
H     -1.190736    2.067143    1.231951
H     -1.913287    1.519977    2.776796
H      4.355665   -1.196370    0.689957
H      5.179698   -0.114854    1.801713
H      3.985182    1.817914    1.255079
H      2.893112    0.555733    1.819293
H     -5.031187   -1.764543   -1.480321
H     -4.159027   -1.944949    0.090312
H      1.993695    1.995809   -0.048909
H      3.283289    1.424488   -1.113621
H     -5.182407    0.119715    0.421667
H     -5.030547    0.568592   -1.365402
H     -2.262090   -2.034302   -1.337334
H     -3.174519   -1.302326   -2.675423
H      1.091111   -0.663515    1.294693
H     -0.756742    1.268547   -1.449113
H     -0.592497   -0.375163   -2.092042
H      1.217271    0.435230   -1.616432
H     -3.227106    1.802283   -0.481254
H     -1.903020   -1.593008    0.994150
H     -0.461672   -1.294810    2.601578
H     -3.416783    0.147289    2.829113
