53

C     -4.572022    2.904499   -0.317150
C      5.367293    1.489408   -1.013160
C      5.449102    0.171852    1.276080
C     -3.986846   -2.324313    0.327631
C     -3.565225   -2.014898   -2.108113
C     -3.074370    2.943789    0.011077
C      4.195683    1.200879   -0.476364
C     -2.552038    1.500960   -0.114806
C     -0.751426   -3.203183   -0.436387
C     -2.036915   -3.261282   -0.724017
C     -0.463071    2.727911    0.527982
C      4.010828    0.604729    0.885819
C     -1.103756    1.527023    0.203227
C     -0.125552   -1.920258   -0.107600
C      0.884848    2.692231    0.814689
C     -0.297195    0.399052    0.203589
C      1.856286   -0.657373    0.510264
C      3.272183   -0.708134    0.813843
C      1.226769   -1.867114    0.193225
C     -0.890935   -0.790173   -0.103953
C      1.056743    0.460194    0.506712
C     -2.910907   -2.067768   -0.733916
O      1.427627    3.805396    1.104397
O      3.984187   -1.492533   -0.131572
O      1.891042   -3.071431    0.159837
O      1.586841    1.598615    0.797708
O     -2.230184   -0.893041   -0.410136
H     -4.851888    3.917187   -0.671250
H     -4.779184    2.175085   -1.109020
H     -5.169027    2.680284    0.598138
H      6.284078    1.307478   -0.485642
H      5.465541    1.918389   -1.998227
H      6.099905    1.013722    1.472025
H      5.821998   -0.407168    0.417071
H      5.389903   -0.557347    2.117389
H     -4.151996   -3.408641    0.428725
H     -4.942702   -1.843617    0.067822
H     -3.569513   -1.976955    1.296234
H     -2.834661   -2.368538   -2.877795
H     -4.423573   -2.718617   -2.149967
H     -3.870797   -0.976023   -2.319802
H     -2.986932    3.308183    1.036929
H     -2.613142    3.597527   -0.753186
H      3.338023    1.432116   -1.138608
H     -3.155597    0.948360    0.647996
H     -2.779972    1.230195   -1.154165
H     -0.160404   -4.129113   -0.446540
H     -2.510826   -4.206486   -0.968488
H     -1.039338    3.646325    0.544688
H      3.693296    1.281395    1.655314
H      3.415459   -1.218405    1.783411
H      3.868663   -1.082106   -1.023152
H      2.813698   -3.318268    0.338163
