43

C      0.785532   -2.198369    1.994174
C      5.295232    0.313747    1.625695
C      4.758357    1.764818   -0.393840
C      0.244496   -2.034786   -0.605077
C      0.859484   -0.986167    1.482478
C      2.482937    0.055137   -0.972482
C      3.369135   -0.187505    0.175117
C     -4.479954   -0.397599   -0.944653
C     -3.726630    0.948211    0.813978
C     -5.752356    0.084524   -0.776580
C     -4.993953    1.451108    1.007236
C     -2.073306   -0.524720   -0.368624
C      1.073623    0.329602   -0.612312
C     -1.057950   -0.159949    0.350874
C      4.413876    0.582104    0.456785
C     -3.405845    0.022508   -0.144399
C     -6.027919    1.017849    0.204024
C      0.332314   -0.718452    0.131337
O     -7.327295    1.492652    0.355673
H      0.354287   -3.041334    1.484785
H      1.182977   -2.377925    3.000307
H      6.243052   -0.106534    1.219004
H      4.819696   -0.417004    2.281461
H      5.477302    1.242580    2.205995
H      5.743058    2.191170   -0.116096
H      4.853156    1.476199   -1.464440
H      4.008898    2.568231   -0.242633
H      1.126019   -2.626075   -0.353675
H      0.157279   -1.898656   -1.701589
H     -0.646151   -2.568161   -0.216178
H      1.303117   -0.177513    2.041304
H      2.877349    0.981534   -1.491081
H      2.590830   -0.730988   -1.766391
H      3.183464   -1.024164    0.821314
H     -4.259672   -1.126408   -1.708847
H     -2.949251    1.311644    1.460821
H     -6.591236   -0.236194   -1.393169
H     -5.231062    2.180898    1.767515
H     -1.887715   -1.255923   -1.147379
H      1.060296    1.254311    0.018533
H      0.533416    0.647999   -1.548549
H     -1.126436    0.561397    1.148539
H     -7.592452    2.316200   -0.175043
