57

C     -2.255680    2.301731    1.528070
C     -3.449449    2.579055    0.864343
C     -2.288903   -2.745726    0.501026
C      5.248837   -0.340925   -0.134971
C     -1.482716   -1.729361    1.281900
C      0.084163    0.246773   -1.524140
C      1.484023    0.002030   -1.010801
C      5.992079    0.656743   -0.718527
C     -0.156222    0.991924    1.703650
C      2.863208   -0.455368    0.825012
C      4.065683    1.525269   -0.237317
C      4.017949    0.209111    0.173895
C     -1.434355    1.340187    1.041703
C     -3.785049    1.863481   -0.292849
C     -2.818112   -2.074078   -0.716070
C      0.499765   -0.237874    1.183424
C     -1.794950    0.674192   -0.076567
C     -2.938915    0.886219   -0.777517
C     -2.033400   -1.106120   -1.514298
C     -0.986673   -0.395636   -0.713259
C     -0.394530   -1.180531    0.421219
N      1.642611    0.152076    0.391706
O     -4.959337    2.110547   -0.977007
O     -3.953445   -2.326058   -1.083374
O      0.391273   -2.240106   -0.013575
O      5.266121    1.748891   -0.765552
O     -2.908703   -0.007347   -1.843231
C     -1.039786   -0.077627   -0.109850
O      1.531923    1.017613    0.058509
O      1.159609   -1.185411   -1.188377
O      0.894644   -1.232098    1.278416
S      0.687116   -0.441744    0.028804
H     -2.041492    2.880018    2.415598
H     -4.116929    3.349222    1.245580
H     -3.157768   -3.063307    1.134569
H     -1.697722   -3.624926    0.199722
H      5.554688   -1.351693    0.049273
H     -2.208409   -0.945694    1.615404
H     -1.089619   -2.178192    2.224536
H      0.042291   -0.196471   -2.557706
H     -0.086602    1.345336   -1.668920
H      1.855954   -1.003655   -1.349989
H      2.134148    0.734063   -1.528338
H      7.020945    0.553861   -1.083289
H      0.511844    1.889891    1.581539
H     -0.317086    0.921476    2.817692
H      2.888612   -1.542751    0.571736
H      3.026766   -0.342881    1.929680
H      3.332079    2.301605   -0.186784
H      0.906597   -0.816174    2.057704
H     -1.651868   -1.510512   -2.453030
H     -5.603104    2.823279   -0.645951
H      0.781401   -2.671596    0.784571
H     -1.200041    0.459213   -1.057408
H     -1.685554   -0.950327    0.035747
H     -1.269873    0.656897    0.710711
H      0.921963    1.753483    0.243448
