43

C     -0.934185    4.004424   -0.592344
C     -3.756809   -1.105761    2.599853
C     -4.355381   -1.412387    0.084598
C     -0.394586    1.922154    1.037757
C     -0.261327    2.985753   -1.108980
C     -1.773369   -0.467209   -0.614341
C     -2.206582   -0.583349    0.801490
C      3.523176   -0.301340   -1.185010
C      2.952534   -1.835973    0.544966
C      4.730402   -0.960969   -1.379444
C      4.130745   -2.474167    0.350274
C      1.373312   -0.050445   -0.019423
C     -1.428321    0.886079   -1.043046
C      1.000784    0.989393   -0.700848
C     -3.405817   -1.021309    1.156851
C      2.631576   -0.726648   -0.231917
C      5.026149   -2.051908   -0.602589
C     -0.335129    1.633530   -0.409459
O      6.224691   -2.740551   -0.765683
H     -1.519381    3.875754    0.302490
H     -0.886025    4.972842   -1.086519
H     -2.869485   -1.131400    3.248868
H     -4.398399   -0.255239    2.906108
H     -4.360617   -2.028469    2.793623
H     -5.340294   -1.731837    0.501487
H     -4.520830   -0.538272   -0.578263
H     -3.965950   -2.235659   -0.547551
H      0.063640    2.948802    1.193146
H      0.230690    1.284517    1.697720
H     -1.437993    2.070215    1.436634
H      0.331129    3.096381   -2.006648
H     -2.630319   -0.872052   -1.233729
H     -0.982557   -1.234606   -0.749403
H     -1.516382   -0.304300    1.581847
H      3.317531    0.557047   -1.813726
H      2.227110   -2.147985    1.290300
H      5.406258   -0.606977   -2.129940
H      4.382697   -3.337876    0.953836
H      0.703189   -0.420662    0.738498
H     -1.200513    0.857678   -2.153057
H     -2.380085    1.501024   -1.021030
H      1.600704    1.426969   -1.480949
H      7.004020   -2.435215   -0.220611
