40

C      6.760354   -1.471600   -0.661152
C     -6.173922   -0.384077   -1.395009
C     -1.118147   -2.145517    2.172732
C      5.515089   -0.780509   -0.172127
C      4.496621   -0.688393   -0.972753
C     -3.700228    1.018869   -0.828171
C      3.096191    0.531321    0.699635
C     -3.042316   -0.865354    0.497483
C      1.082879    0.620624   -1.118060
C      3.245841   -0.021006   -0.549591
C     -3.969873   -0.239050   -0.314839
C     -2.478481    1.635670   -0.508597
C      0.859032    1.189552    0.097845
C      1.882149    1.141655    1.015228
C     -1.842351   -0.279314    0.821668
C     -1.580888    0.981963    0.302291
C     -0.415858    1.844620    0.464172
C     -1.905277    2.920361   -0.876610
O      1.701094    1.660841    2.148498
O     -2.485315    3.752026   -1.613603
O     -5.148728   -0.896177   -0.590925
O     -0.879880   -0.860043    1.628608
O      2.231951    0.053676   -1.389556
O     -0.681801    2.991924   -0.272314
H      7.666951   -0.916295   -0.368668
H      6.745109   -1.513263   -1.769974
H      6.796558   -2.466334   -0.190290
H     -6.655373    0.523729   -0.948041
H     -6.916226   -1.164156   -1.606709
H     -5.715763   -0.090470   -2.373807
H     -0.169348   -2.638447    2.492798
H     -1.834660   -2.103070    3.040610
H     -1.580582   -2.839787    1.439439
H      5.548188   -0.404105    0.816734
H      4.575106   -1.110382   -1.964151
H     -4.408310    1.532076   -1.466575
H      3.882958    0.504307    1.429976
H     -3.275061   -1.844707    0.885180
H      0.267413    0.663697   -1.836740
H     -0.375096    2.155144    1.535315
