39

C     -2.920990    0.951086   -0.689362
C     -2.625219    1.117183    0.801543
C     -1.764303    0.266556   -1.393044
C      2.840507    0.240466   -1.367028
C      3.508033    1.175439   -0.618738
C     -1.118841    1.258518    0.993895
C     -0.229514   -0.955505    1.769790
C     -0.378776   -2.395250    1.274291
C      0.852809   -1.149788   -1.787728
C      1.675031    1.345357    0.892400
C      1.545599   -0.145921   -0.959295
C      2.934083    1.725657    0.501820
C     -1.191544   -0.719440   -0.420770
C      0.968239    0.389081    0.144116
C     -0.306392   -1.757925   -1.057104
C     -0.382056    0.005060    0.600827
N      0.220667   -2.590973   -0.011826
O      3.637189    2.676631    1.245766
H     -3.783256    0.254606   -0.745560
H     -3.156159    1.932338   -1.144042
H     -3.063188    2.082709    1.130356
H     -3.050761    0.305082    1.395488
H     -1.013406    1.081974   -1.602606
H     -2.110204   -0.196327   -2.334177
H      3.254897   -0.216972   -2.254507
H      4.491940    1.499389   -0.889004
H     -0.793598    2.059193    0.297477
H     -0.899190    1.595942    2.010811
H     -0.944199   -0.779577    2.572388
H      0.794570   -0.859580    2.193728
H     -1.435607   -2.734422    1.335039
H      0.183182   -3.020558    1.999371
H      0.579017   -0.760894   -2.789311
H      1.598619   -1.989123   -1.928052
H      1.218889    1.767346    1.763019
H     -2.021529   -1.236509    0.068694
H     -0.924341   -2.306711   -1.794594
H      0.266386   -3.589061   -0.223115
H      3.543417    3.674922    1.019046
