42

C      3.470761    0.305513   -1.333785
C     -0.579842    2.588203   -1.145729
C     -1.151278   -1.217667   -1.495063
C     -1.477018    3.046026   -0.196393
C     -2.241566   -1.425106   -0.778566
C      1.361210   -0.757234    1.193842
C      2.553821   -1.113355    0.380474
C      0.867270    0.736019   -1.955477
C     -0.046528    1.308928   -0.953330
C      0.205794   -1.408344   -0.862019
C      1.262955   -0.661985   -1.606101
C     -1.849096    2.285815    0.908868
C     -2.184058   -1.841118    0.628288
C     -0.442263    0.619712    0.138513
C     -1.311443    1.018995    1.084938
C     -1.037278   -1.262344    1.362883
C      0.063085   -0.742726    0.494010
N      2.544175   -0.692583   -0.961041
O     -2.748928    2.784382    1.829837
O     -3.387026   -1.546586    1.292253
O     -1.445407   -0.019456    2.039339
Cl     0.692802    0.000000    0.000000
H      3.375953    1.276544   -0.817733
H      4.498249   -0.067308   -1.083687
H      3.484778    0.464202   -2.430260
H     -0.280072    3.150609   -2.000448
H     -1.237416   -0.909894   -2.539704
H     -1.884468    4.042158   -0.355590
H     -3.207800   -1.265586   -1.305330
H      1.485996    0.225229    1.737830
H      1.294611   -1.506875    2.037381
H      3.461728   -0.689047    0.897413
H      2.723623   -2.228028    0.400825
H      1.743154    1.437087   -2.021864
H      0.400306    0.764688   -2.977034
H      0.426307   -2.487187   -0.793992
H      1.414423   -1.245521   -2.573002
H     -2.125088   -2.963060    0.664903
H     -0.699733   -1.943667    2.160962
H     -3.125293    3.704775    1.681385
H     -4.176596   -1.764205    0.730579
H     -0.692802    0.000000    0.000000
