47

C      5.069538    0.090561    1.554393
C      4.125774    0.729807    0.901406
C     -1.638023    2.838091   -0.147459
C     -2.937114    2.780178    0.334037
C     -1.610497   -2.077684   -2.110277
C     -0.750092   -0.833797   -2.141819
C      0.155408   -0.795668    1.539003
C      3.370317    0.073563   -0.187196
C      1.627094   -0.752929    1.269789
C      0.500413    1.662845   -0.667390
C     -0.884227    1.686849   -0.154419
C     -3.487393    1.584414    0.807043
C     -2.484111   -1.966118   -0.894883
C      1.080364    0.300056   -0.848388
C     -1.453479    0.560760    0.310450
C     -2.716351    0.422931    0.796229
C     -1.902364   -1.680696    0.423256
C     -0.727220   -0.732844    0.356337
C      0.087531   -0.831580   -0.903168
N      2.009155    0.064679    0.188071
O     -4.778705    1.489067    1.294413
O     -3.684855   -2.120149   -1.042604
O      0.795968   -2.029099   -0.860487
O     -2.875125   -0.903859    1.155589
Cl     0.689355    0.000000    0.000000
H      5.658078    0.509496    2.358399
H      5.295653   -0.941404    1.284636
H      3.894711    1.744586    1.155254
H     -1.216050    3.760118   -0.512223
H     -3.580858    3.650968    0.366342
H     -2.220777   -2.131483   -3.033233
H     -0.997014   -2.993343   -2.049188
H     -0.082495   -0.919956   -3.017849
H     -1.431575    0.035179   -2.224916
H     -0.053799   -1.759706    2.082463
H     -0.106634    0.010466    2.270235
H      3.805321   -0.902651   -0.475522
H      3.530031    0.735736   -1.091071
H      2.117192   -0.361729    2.194902
H      2.010832   -1.814502    1.186868
H      1.099107    2.272040    0.076495
H      0.561246    2.281515   -1.599439
H      1.594188    0.297979   -1.855301
H     -1.643558   -2.540290    1.036442
H     -5.400047    2.284150    1.337322
H      0.274441   -2.776547   -0.462541
H     -0.689355    0.000000    0.000000
