17

C     -1.950784    0.456576    0.127094
C      0.662494    0.044449    1.301403
C     -0.711354    0.333614   -0.703076
C      1.562148   -0.626276   -0.866527
C      0.313663   -0.565054   -0.030382
Br     2.310388    1.112081   -1.159828
H     -2.081642    1.468812    0.567390
H     -2.873581    0.272277   -0.483225
H     -1.921864   -0.307361    0.949088
H     -0.207010    0.141294    1.959024
H      1.439967   -0.569648    1.817502
H      1.149406    1.050983    1.157149
H     -0.254973    1.320346   -0.906605
H     -0.931149   -0.127322   -1.682922
H      1.298407   -1.113066   -1.832280
H      2.281083   -1.323989   -0.351523
H     -0.085200   -1.567716    0.137720
