39

C     -2.345974    3.048798   -0.749814
C     -1.405223   -2.816152   -0.260500
C     -0.853451   -1.959820    0.887615
C      2.219882   -0.249329   -1.171698
C      3.550867   -0.132333   -0.777324
C     -1.400854   -2.018258   -1.549655
C     -1.410518    1.754469    1.094064
C      0.477045    0.621129    2.084886
C     -0.661051    1.191164   -1.203647
C     -1.448803    1.961385   -0.208265
C     -0.929083    0.448701    1.600090
C     -1.060362   -0.530548    0.468271
C      1.230739   -0.004006   -0.239988
C      1.494392    0.349740    1.056667
C      3.792524    0.224233    0.530349
C     -0.183616   -0.133658   -0.678943
N     -0.225204   -1.183884   -1.668896
N      2.786912    0.456724    1.415225
O      5.128708    0.340584    0.922232
H     -3.015162    2.561955   -1.490393
H     -2.965414    3.482931    0.057031
H     -1.729861    3.831536   -1.246803
H     -0.839493   -3.759271   -0.339128
H     -2.466750   -3.097287   -0.067973
H     -1.502741   -2.152380    1.766895
H      0.199376   -2.207070    1.091288
H      2.049413   -0.525814   -2.186145
H      4.344031   -0.316478   -1.478105
H     -1.347904   -2.760895   -2.374958
H     -2.302834   -1.412530   -1.684265
H     -1.729370    2.537937    1.754402
H      0.670426   -0.002277    2.980107
H      0.629205    1.689716    2.415204
H     -1.314083    0.976684   -2.091899
H      0.202134    1.837998   -1.503773
H     -1.552701    0.067844    2.451979
H     -2.123520   -0.456743    0.109490
H      0.602275   -1.832319   -1.586024
H      5.436042    0.167523    1.872401
