50

C     -2.525297    2.033615   -0.910924
C     -3.900978   -2.116531   -0.581218
C     -3.247590   -1.486273    1.753386
C     -5.512979    0.915422   -0.245170
C      2.428648    0.271236   -1.557575
C      5.728051   -0.350658    0.793064
C      3.785875    0.382465   -2.141929
C      5.414496   -0.630970   -0.682761
C      1.315959    0.592203    0.649153
C     -3.243059    0.855537   -0.235536
C      2.502643    0.590596   -0.276157
C      4.370367    0.123632    1.278019
C      3.886779    0.933419    0.089802
C     -1.083523    0.132530    0.579618
C     -2.816345   -1.562234    0.328488
C     -2.252571   -0.271529   -0.209253
N      4.683076    0.560305   -1.037616
O      4.435215    0.853367    2.440685
O     -1.129049    0.416610    1.805683
O     -1.760695   -2.501977    0.252590
O     -1.856400   -0.511463   -1.521399
O     -4.370091    0.608592   -0.979530
O      0.154317    0.215505   -0.030715
H     -2.984484    2.994198   -0.638765
H     -1.459165    2.055359   -0.618161
H     -2.606366    1.928790   -2.010833
H     -3.753996   -3.192369   -0.807705
H     -3.853765   -1.593193   -1.557341
H     -4.893032   -1.911306   -0.136920
H     -2.564446   -2.039558    2.442821
H     -3.314620   -0.455362    2.149737
H     -4.235482   -2.017993    1.829684
H     -5.550806    1.976740    0.066353
H     -6.433534    0.665207   -0.809673
H     -5.542647    0.306824    0.685092
H      1.538854   -0.026562   -2.116888
H      6.092635   -1.236367    1.312689
H      6.453464    0.494005    0.782995
H      4.050454   -0.538480   -2.731816
H      3.778298    1.250587   -2.827366
H      6.353337   -0.713742   -1.267508
H      4.802841   -1.548239   -0.705544
H      1.212758    1.544478    1.187180
H      1.525877   -0.211177    1.407079
H     -3.484565    1.245279    0.795003
H      3.750744   -0.813292    1.392672
H      4.009315    2.017608    0.284964
H      4.423436    0.199745    3.203879
H     -1.104997   -2.345173    0.982112
H     -1.216955    0.150702   -1.854445
