64

C      1.332459    3.274452   -0.510078
C     -2.764411   -0.813676    0.927264
C     -2.765797   -1.462720   -0.438436
C     -2.347564    0.603852    0.732947
C      2.161371   -0.615701    1.957343
C      2.818928   -1.783812    1.598294
C     -1.372510   -1.545867   -1.017531
C      0.154905    0.097353   -2.030942
C      0.535126    1.558508   -1.866262
C      0.450291    1.118309    1.681646
C      1.283933   -1.969344   -0.237844
C      1.089442   -0.145769    1.225639
C      2.370934   -2.456071    0.494731
C     -1.206211    0.833640   -0.178845
C      0.638942   -0.809638    0.127538
C     -0.157431    1.742958    0.437913
C     -0.515162   -0.371972   -0.721936
N      0.923838    1.888449   -0.520379
O      3.023343   -3.627541    0.126822
C     -0.482488    0.119788   -0.565205
C      0.392787   -0.160207    0.661890
C     -1.759782    0.745939   -0.080696
C      1.684158   -0.664666    0.167670
O     -0.743437   -1.053224   -1.248727
O     -0.231253   -1.034355    1.530661
O     -2.873320    0.208777   -0.309867
O     -1.743637    1.921198    0.624979
O      2.095953   -1.775243    0.545290
O      2.437878    0.079945   -0.706347
O     -0.002219    0.375519   -0.000000
O     -0.008923    0.392260   -0.000000
H      2.274882    3.345031    0.106069
H      1.519274    3.682486   -1.523573
H      0.600507    3.943136   -0.015408
H     -2.134924   -1.371340    1.649750
H     -3.804967   -0.828225    1.307661
H     -3.239249   -2.458845   -0.371606
H     -3.386587   -0.841813   -1.109325
H     -2.162883    1.027432    1.762042
H     -3.275704    1.161427    0.403253
H      2.539467   -0.107802    2.834002
H      3.647481   -2.159357    2.152654
H     -0.927995   -2.465742   -0.583638
H     -1.404523   -1.738233   -2.122132
H      1.031716   -0.506720   -2.258158
H     -0.614519    0.027370   -2.817490
H      1.464327    1.693067   -2.490111
H     -0.204851    2.247875   -2.294913
H     -0.271107    0.977622    2.493360
H      1.246356    1.842373    2.014243
H      1.022512   -2.584048   -1.091464
H     -1.600175    1.420087   -1.061385
H     -0.645694    2.683914    0.699350
H      2.672230   -4.505106    0.528935
H      0.056517    0.814247   -1.241349
H      0.557953    0.785953    1.207644
H     -0.697871   -0.932660   -2.234605
H      0.472651   -1.443053    2.098445
H     -2.500407    2.595955    0.629822
H      3.334298   -0.208393   -1.079605
H      0.812547   -0.187012    0.000000
H     -0.810328   -0.188507   -0.000000
H     -0.791605   -0.199469   -0.000000
H      0.800527   -0.192791    0.000000
