11

C      0.793754   -0.191400    0.598705
C     -1.554689    0.281130   -0.237929
C     -0.177356   -0.261746   -0.520983
O      1.836556    0.679568    0.298777
O     -1.295290   -1.055481   -0.462164
H      1.197572   -1.197215    0.853761
H      0.284755    0.185130    1.502875
H     -1.981825    0.921059   -1.022288
H     -1.836467    0.528470    0.799276
H      0.218058   -0.118845   -1.549288
H      2.514932    0.229331   -0.260744
