14

C      0.769316    0.416785    0.480746
C     -0.538415   -0.206011    0.076839
C      1.943893   -0.337571    0.008950
C     -1.629146    0.650052    0.613854
N     -0.724104   -0.301817   -1.339475
O      2.325740   -0.190288   -1.179771
O      2.662691   -1.212149    0.810684
O     -1.477171    1.824112    0.993879
O     -2.921425    0.126052    0.709637
H      0.786122    1.475829    0.095586
H      0.745606    0.522529    1.586446
H     -0.662682   -1.201424    0.583465
H     -1.422602   -1.068273   -1.558467
H      0.142178   -0.497826   -1.882371
