39

C      3.167279    0.576382   -0.391222
C      3.168207   -1.712010    0.317704
C     -2.195093   -1.752353    0.852466
C      0.216571   -1.013562   -1.413233
C     -2.694412    1.378897   -1.173525
C     -2.788988    0.481416    0.048021
C     -1.240539    1.704891   -1.491997
C      1.286708    1.524723    1.408158
C      0.387934    1.969328    0.309165
C      0.265834   -0.713649    1.065828
C      2.631108   -0.330399    0.397423
C     -1.865503   -0.695156   -0.178287
C      1.546399    0.039351    1.315707
C     -0.360029    1.152741   -0.395117
C     -0.426057   -0.320636   -0.209321
H      3.967476    0.364160   -1.082271
H      2.810519    1.594368   -0.373287
H      4.072592   -1.784318    0.990275
H      3.584837   -1.898249   -0.713709
H      2.455798   -2.481555    0.614553
H     -3.245071   -2.090764    0.609960
H     -1.560271   -2.653858    0.732333
H     -2.240006   -1.366960    1.877038
H      0.885538   -0.324476   -1.932651
H      0.673449   -1.981992   -1.131209
H     -0.581220   -1.285659   -2.165441
H     -3.090179    0.826464   -2.050391
H     -3.303468    2.294287   -1.073146
H     -3.818478    0.069031    0.093772
H     -2.604084    1.017002    0.982454
H     -1.160681    2.808996   -1.529374
H     -0.929792    1.321394   -2.475435
H      2.184008    2.129400    1.466697
H      0.716002    1.708718    2.353947
H      0.353898    3.030920    0.082372
H      0.449869   -1.782022    1.153485
H     -0.428653   -0.429514    1.908825
H     -2.148894   -1.114942   -1.163577
H      1.857393   -0.260396    2.363011
