14

C      0.829746    0.465572   -0.379611
C     -0.415001   -0.388115   -0.099867
C      1.906640    0.117214    0.573083
C     -1.444282    0.018941   -1.081339
N     -0.825162   -0.270540    1.264167
O      2.138807    0.773195    1.639395
O      2.692657   -1.000675    0.254530
O     -1.359338    1.190093   -1.570646
O     -2.479523   -0.851582   -1.462774
H      0.549219    1.534372   -0.356280
H      1.156734    0.169398   -1.395648
H     -0.067082   -1.425613   -0.328289
H     -1.168446    0.683386    1.454086
H     -1.514970   -1.015648    1.489193
