39

C      3.065210   -0.929756    0.613022
C      3.429401    1.301028   -0.191307
C     -1.924291    2.043794   -0.974033
C      0.471255   -0.188646   -1.645185
C     -2.832649   -1.582877   -0.472854
C     -2.849244   -0.104199   -0.077300
C     -1.453587   -2.168855   -0.302778
C      0.871243   -0.358043    2.173547
C     -0.006301   -1.345201    1.494091
C      0.323792    1.229598    0.317072
C      2.606982    0.294369    0.585053
C     -1.753332    0.551200   -0.900696
C      1.361937    0.704568    1.272444
C     -0.565886   -1.117285    0.338439
C     -0.393600    0.132939   -0.423767
H      3.980788   -1.181486    0.103687
H      2.561971   -1.728725    1.126242
H      2.846142    2.239049   -0.221871
H      4.353032    1.484943    0.394805
H      3.658166    0.907800   -1.203623
H     -2.568889    2.415543   -0.152862
H     -2.453461    2.343349   -1.925972
H     -0.984513    2.601327   -0.968675
H      1.075922   -1.102401   -1.489467
H     -0.175825   -0.313749   -2.551745
H      1.168079    0.639883   -1.881524
H     -3.177233   -1.707457   -1.527818
H     -3.553456   -2.133224    0.159064
H     -3.825329    0.321208   -0.323132
H     -2.677578   -0.052290    0.996559
H     -1.539904   -3.049261    0.362642
H     -1.012913   -2.524063   -1.250182
H      0.256534    0.084972    3.018859
H      1.679847   -0.898958    2.682466
H     -0.211564   -2.317766    1.959647
H     -0.370307    1.911036    0.851956
H      0.855650    1.850471   -0.431230
H     -1.886607    0.160946   -1.931327
H      1.650519    1.586220    1.921479
