43

C      4.392336    0.430868   -0.185500
C      3.061718    0.774145   -0.826730
C      4.431415   -1.007193    0.191048
C     -3.860754    1.362924    0.273415
C     -2.421558    1.641280   -0.181409
C      0.123108   -0.195081   -1.169488
C     -2.948908   -0.951584   -0.073549
C     -0.213865    1.400429    0.741009
C      0.642967   -1.537671    0.791367
C      0.662933    0.993196   -0.407142
C     -0.464609   -1.147805   -0.156976
C     -4.089657   -0.109273    0.395218
C      1.992878    0.545166    0.198483
C     -1.640415   -0.516433    0.552258
C      3.125395   -1.609347    0.469747
N     -1.549674    0.899213    0.660612
N      1.893466   -0.875089    0.491727
O     -5.212906   -0.422440   -0.404209
O      3.057424   -2.829134    0.704107
H      5.201780    0.684205   -0.890211
H      4.522625    1.125640    0.690834
H      2.927585    0.119594   -1.723544
H      3.017909    1.808051   -1.174321
H      5.158074   -1.128916    1.035936
H      4.877474   -1.569317   -0.672442
H     -4.042326    1.939820    1.180841
H     -4.503179    1.831551   -0.528871
H     -2.200579    2.721207   -0.043816
H     -2.387509    1.403399   -1.243458
H     -0.542380    0.061319   -1.987509
H      1.011289   -0.722727   -1.618661
H     -3.147654   -1.999548    0.281162
H     -2.921132   -0.982428   -1.166116
H     -0.254615    2.505033    0.812254
H      0.198801    1.063129    1.737338
H      0.813784   -2.643670    0.639469
H      0.353566   -1.415615    1.847367
H      0.790347    1.863478   -1.080065
H     -0.873197   -2.021338   -0.720618
H     -4.415772   -0.348599    1.443622
H      2.243430    1.145392    1.089880
H     -1.646334   -0.944544    1.597314
H     -5.163283   -1.341284   -0.743871
