24

C      0.493521    0.586034    0.155271
C      1.724817    0.336880   -0.718805
C     -0.525239   -0.472297   -0.158129
C      2.765149    1.373866   -0.434601
C     -1.798876   -0.351238    0.640210
C      0.060695   -1.822592   -0.034500
C     -2.515639    0.916663    0.441727
O      2.517235    2.255324    0.422786
O      3.965585    1.329143   -1.124162
O     -2.637749   -1.417583    0.297007
O      0.129605   -2.656876   -0.964740
O      0.572469   -2.190595    1.208402
O     -1.998018    2.028070    0.700262
O     -3.821147    0.902130   -0.051869
H      0.136950    1.607759   -0.072883
H      0.827714    0.530236    1.208573
H      2.119955   -0.677394   -0.495734
H      1.450076    0.440234   -1.785499
H     -0.820240   -0.361531   -1.242726
H     -1.565757   -0.460941    1.725109
H      4.803316    1.683388   -0.649641
H     -2.465690   -2.206606    0.855079
H      0.886911   -3.129828    1.386875
H     -4.305643    1.757752   -0.195779
