41

C     -4.220341   -0.600035    0.136924
C      5.394537   -0.210734    0.813397
C      1.571382   -2.145508    0.468618
C     -0.747816    0.152124   -2.226947
C      0.131678    1.037665   -2.650609
C      2.824310   -1.557715    0.583748
C     -1.230237    1.135894    1.388044
C     -2.661348    0.736042    1.236744
C     -0.907310   -1.900218    0.174239
C      0.451354   -1.365144    0.308509
C     -1.377806    0.347273   -0.908641
C     -1.913321   -0.938916   -0.327366
C      0.472981    2.193936   -1.820584
C      2.953264   -0.169204    0.537263
C      0.642398   -0.022486    0.271318
C      1.818208    0.631372    0.374469
C      0.271164    2.170796   -0.339399
C     -0.451565    0.956954    0.112305
N     -2.864052   -0.575086    0.706193
O      0.945733    3.242648   -2.321429
O      4.175233    0.443749    0.647719
O      1.558756    1.989401    0.284523
H     -4.934923   -0.038920    0.737955
H     -4.551044   -1.637644   -0.065134
H     -4.159944   -0.088271   -0.856007
H      5.573696   -0.494151    1.857972
H      6.262201    0.385266    0.443235
H      5.389778   -1.143756    0.186818
H      1.489721   -3.231950    0.507004
H     -0.978289   -0.690177   -2.862529
H      0.620631    0.922440   -3.629652
H      3.706754   -2.167320    0.709937
H     -0.797404    0.538675    2.229630
H     -1.197595    2.204765    1.662090
H     -3.241203    1.531021    0.695998
H     -3.108281    0.737237    2.274462
H     -0.831204   -2.846932   -0.420274
H     -1.224521   -2.242494    1.198809
H     -2.247085    1.035863   -1.014543
H     -2.478611   -1.440511   -1.162921
H     -0.129881    3.114051    0.058114
