14

C     -0.756343   -0.256609   -0.166535
C      0.736511   -0.457057    0.086257
C     -1.169207    1.124432    0.102279
C      1.559294    0.318974   -0.855497
O     -1.083879   -0.658840   -1.466244
O      0.948742   -0.022685    1.412887
O     -0.335477    2.065627    0.109862
O     -2.503824    1.396469    0.352613
O      2.134689    1.368168   -0.509663
O      1.700152   -0.120991   -2.152681
H     -1.264205   -0.917899    0.594498
H      0.941953   -1.555485    0.027612
H     -1.376789   -1.601889   -1.392087
H      0.468383   -0.682214    1.976780
