11

C     -0.938860   -0.793134    0.030220
C     -0.002988    0.388502    0.153831
C      1.430171   -0.065391    0.067097
O     -0.196332    1.290870   -0.870831
O      1.678784   -1.207072   -0.379004
O      2.459470    0.753069    0.468925
H     -0.376059   -1.741089   -0.169583
H     -1.519277   -0.962868    0.960348
H     -1.675038   -0.637225   -0.786491
H     -0.172574    0.870962    1.141536
H     -0.687296    2.103376   -0.616047
