27

C      4.172300    0.122955    0.354603
C      2.995673   -0.758665    0.016008
C     -4.026111    0.885768    0.154964
C     -1.733726   -0.105122   -0.049690
C     -2.976390    0.035305    0.815920
N      4.148091    1.303520   -0.481398
O     -3.563207    2.192006   -0.017432
O     -3.500649   -1.257696    0.959737
O      0.393625   -1.193125   -1.869362
O      1.073882   -2.592323    0.204551
O      1.778021   -0.108898    0.218015
O     -0.865256   -0.945248    0.613549
P      0.570994   -1.216262   -0.201084
H      5.088113   -0.450073    0.098034
H      4.211309    0.378107    1.430960
H      3.061204   -0.966087   -1.085248
H      3.054197   -1.736139    0.510487
H     -4.912349    0.890347    0.799654
H     -4.286109    0.461707   -0.851424
H     -2.088524   -0.596781   -0.997378
H     -1.303571    0.858238   -0.341233
H     -2.675214    0.485261    1.766516
H      4.666431    2.096382   -0.061822
H      3.174091    1.525543   -0.746267
H     -3.665682    2.708891    0.825301
H     -3.335137   -1.754222    0.111239
H      0.543994   -0.263389   -2.177200
