78

C      7.423535    0.917497    0.275609
C      7.854639   -1.009477   -1.214443
C     -4.145971   -0.251643   -2.284060
C      0.158171    0.998582   -1.159859
C      2.876363   -0.703494   -1.061707
C     -1.986066   -1.036885   -1.102686
C      1.084439    0.655082    1.996592
C      4.977658   -0.430481    1.125846
C      5.702176   -0.866417   -0.076622
C     -0.632800   -1.287061   -0.527575
C     -0.212150    1.488116    1.738096
C     -2.722970    2.029581    0.312194
C     -5.853158    1.157547    0.702079
C     -5.179405   -1.276276   -0.342395
C     -2.948720   -0.336656   -0.170738
C     -2.228480    0.823069    0.381482
C     -4.934227    1.200933   -0.525363
C     -4.007433    2.326223   -0.306323
C     -7.020804    0.233334    0.436816
C     -6.622361   -0.937686   -0.416851
C      1.232704   -0.191383    0.769560
C      3.523971   -0.656945    1.253842
C      7.231050   -0.550074    0.086587
C     -4.270131   -0.121010   -0.753624
C      0.066961   -0.019074   -0.040340
C      2.628231    0.002011    0.200708
C     -0.958974    0.498622    0.991611
O     -4.329960    3.477091   -0.644083
O     -7.985067    1.015206   -0.238465
O     -7.102837   -0.749229   -1.690498
O      3.134946   -0.259197    2.563956
O      7.700210   -1.340475    1.107711
O      2.858991    1.353446    0.194953
O     -1.176809   -0.624599    1.830898
H      8.452136    1.203242    0.046851
H      7.286325    1.123207    1.373064
H      6.646400    1.512210   -0.249074
H      7.326200   -1.932215   -1.522685
H      7.552928   -0.230138   -1.973548
H      8.936217   -1.128108   -1.160859
H     -3.787752   -1.258169   -2.571457
H     -5.135518   -0.082120   -2.760616
H     -3.505381    0.579803   -2.640286
H     -0.310641    0.621540   -2.104050
H     -0.407880    1.932829   -0.918353
H      1.189146    1.326330   -1.386747
H      1.950141   -0.924076   -1.659286
H      3.395123    0.020214   -1.766781
H      3.521716   -1.575710   -0.976561
H     -2.433896   -2.060761   -1.274566
H     -1.934547   -0.581569   -2.100377
H      1.895781    1.436703    1.982259
H      0.958942    0.133686    2.939297
H      5.446591   -1.006037    2.000383
H      5.212454    0.632383    1.417083
H      5.717072   -1.958979   -0.248680
H      5.437591   -0.258167   -0.945425
H     -0.735604   -1.925844    0.376200
H     -0.061952   -1.842498   -1.273194
H     -0.652121    1.692157    2.733657
H      0.013304    2.439007    1.268262
H     -2.104164    2.819860    0.754109
H     -6.188123    2.178125    0.884524
H     -5.229999    0.815155    1.548587
H     -4.960128   -2.118457   -1.022962
H     -4.909437   -1.616004    0.674767
H     -3.063413   -1.067462    0.697377
H     -5.619213    1.481055   -1.370178
H     -7.438569   -0.046056    1.425322
H     -7.176141   -1.830135   -0.000573
H      1.229436   -1.268460    1.172090
H      3.307781   -1.742059    1.205720
H     -8.829144    0.522070   -0.353298
H     -8.064473   -0.979238   -1.705322
H      3.234850   -1.045132    3.182268
H      7.825359   -0.852614    1.962458
H      3.556810    1.644612    0.823429
H     -1.679931   -0.312457    2.607127
