78

C     -7.659330   -1.367193   -1.172352
C     -5.434408   -2.392481   -0.957746
C      4.666546    1.819326   -0.518757
C      0.084220    0.813626    2.139760
C     -2.283284    2.737424    0.061142
C      2.101460    1.780861    0.307501
C     -1.693820   -0.973548    0.891938
C     -4.746633    0.072324    0.847767
C     -6.076306   -0.324123    0.323841
C      0.594069    1.808366   -0.017841
C     -0.281692   -1.597286    0.953508
C      2.568577   -1.401251    1.281676
C      6.206587   -0.389782    0.880681
C      4.541009   -0.406406   -1.492603
C      2.658094    0.493768   -0.248278
C      1.948936   -0.591753    0.472320
C      4.743974   -0.085222    0.985771
C      3.999551   -1.280729    1.522573
C      6.595808   -1.091646   -0.383291
C      5.405432   -1.572464   -1.147819
C     -1.508604    0.411463    0.291102
C     -3.897379    0.961303    0.026686
C     -6.141864   -1.077789   -0.948794
C      4.126452    0.400023   -0.281845
C     -0.095676    0.699456    0.668000
C     -2.555146    1.351784    0.684386
C      0.506284   -0.636243    0.176598
O      4.681332   -2.120683    2.161915
O      7.451806   -0.307174   -1.189136
O      5.852684   -2.123439   -2.370784
O     -3.696050    0.610332   -1.280108
O     -5.817929   -0.280429   -2.067776
O     -2.795330    1.585657    2.004080
O      0.279925   -0.835029   -1.161024
H     -8.084277   -1.719172   -0.216168
H     -7.785308   -2.094553   -1.980150
H     -8.107582   -0.396788   -1.414704
H     -5.248502   -2.693788   -2.004210
H     -6.040621   -3.194331   -0.475944
H     -4.465268   -2.377484   -0.445096
H      5.757990    1.805314   -0.716936
H      4.191644    2.283117   -1.408003
H      4.530112    2.415683    0.406080
H     -0.741629    0.412041    2.740479
H      0.147031    1.910578    2.395345
H      1.019912    0.372037    2.521592
H     -1.906459    3.427844    0.836969
H     -1.722962    2.684505   -0.868852
H     -3.276947    3.195407   -0.230505
H      2.519711    2.682875   -0.184993
H      2.261219    1.887386    1.382837
H     -2.246695   -1.659069    0.227961
H     -2.112360   -0.936343    1.916174
H     -4.232777   -0.903005    1.110216
H     -4.933165    0.508973    1.876525
H     -6.761207    0.576821    0.199196
H     -6.600238   -0.972225    1.099268
H      0.482435    1.847231   -1.119081
H      0.286140    2.796991    0.386453
H     -0.238509   -2.588087    0.506086
H     -0.006469   -1.702066    2.018378
H      2.029876   -2.167419    1.780743
H      6.475705   -1.031708    1.744801
H      6.836357    0.532132    0.991296
H      3.636802   -0.819608   -2.029336
H      5.070652    0.194837   -2.260119
H      2.306837    0.475097   -1.325562
H      4.622108    0.706072    1.753184
H      7.214496   -2.006777   -0.144475
H      4.900842   -2.356398   -0.568334
H     -1.525553    0.330088   -0.828119
H     -4.514145    1.941772   -0.057647
H      8.032164    0.205568   -0.578772
H      6.789302   -2.414851   -2.315913
H     -3.598263    1.348054   -1.904884
H     -6.513737    0.392451   -2.228804
H     -3.171767    2.489366    2.150924
H      0.393808   -0.079612   -1.753881
