48

C      3.698522    1.862899   -2.173392
C     -3.231789    1.392676   -2.823848
C     -4.170131    0.637591   -3.488059
C     -2.693054    0.882645   -1.674358
C     -4.545395   -0.590924   -3.000606
C      0.654289    1.451304   -0.229096
C      1.670460    2.261020   -1.080274
C      1.065809   -1.431280    3.726983
C     -2.839807   -1.774316    0.926864
C      2.484589    0.060450   -1.314695
C     -3.030971   -0.357058   -1.127711
C      1.445323    0.837794    0.855296
C     -3.954150   -1.069532   -1.807697
C      1.552613   -0.487593    2.860478
C     -0.183264   -2.022755    3.478573
C     -2.130391   -2.184321    2.070019
C      2.693836    0.233500    0.186618
C     -2.328629   -0.831715    0.082204
C      0.800016   -0.127535    1.740229
C     -0.900761   -1.643255    2.366199
C     -0.432944   -0.681222    1.459127
Cl    -4.459029   -2.661895   -1.319227
N      2.364627    1.332201   -1.968647
O      2.783669    0.051190    3.179119
O     -0.621712   -2.945048    4.355010
O     -2.640845   -3.048553    2.808344
O      3.008544   -1.012992    0.670997
O     -1.149674   -0.350189    0.416966
H      4.076065    2.443897   -1.307714
H      3.702681    2.554670   -3.046810
H      4.418167    1.026643   -2.368853
H     -2.942177    2.371095   -3.226226
H     -4.597414    1.042934   -4.399529
H     -1.975044    1.482304   -1.138988
H     -5.283598   -1.173514   -3.531536
H      0.236744    0.724863   -0.970061
H     -0.079531    2.211018    0.105537
H      2.360130    2.714599   -0.346853
H      1.109748    3.042169   -1.617884
H      1.621659   -1.742453    4.613461
H     -3.801256   -2.216516    0.779830
H      1.635894   -0.599026   -1.467732
H      3.420513   -0.485208   -1.650488
H      1.790443    1.684708    1.527483
H      3.532177    0.926448    0.382105
H      3.271046    0.765366    2.685278
H     -1.370953   -3.512109    4.492176
H      3.964956   -1.044974    0.920190
