28

C     -2.968527   -0.010773   -1.202781
C      4.521466   -0.420517   -0.856021
C      4.315753    0.175579    0.361524
C      3.438000   -0.882409   -1.569070
C      3.070229    0.340419    0.918541
C      2.166887   -0.724181   -1.020384
C      0.646945    0.044472    0.782240
C     -0.475882   -0.346594    0.216535
C     -2.910359   -0.753822    0.129422
C      1.966430   -0.124852    0.202582
C     -1.784555   -0.113718    0.919958
N     -4.155344   -0.464834    0.816790
O     -1.717414   -0.607513    2.206544
H     -3.855411   -0.361487   -1.743762
H     -2.060814   -0.154282   -1.802598
H     -3.143742    1.065245   -0.939714
H      5.524088   -0.542043   -1.282323
H      5.175489    0.545390    0.933829
H      3.532926   -1.364805   -2.541157
H      2.939850    0.816568    1.884776
H      1.337955   -1.097871   -1.606098
H      0.554907    0.530034    1.760116
H     -0.452303   -0.827488   -0.739414
H     -2.735786   -1.836131   -0.009934
H     -1.976514    0.976673    0.978954
H     -4.346258    0.553337    0.691789
H     -4.907277   -0.966646    0.259791
H     -1.700737   -1.592127    2.249866
