30

C     -3.165185   -0.843312   -0.941362
C      4.294096    0.666488   -0.771049
C      3.711114    1.688633   -0.045121
C      3.594271   -0.480625   -1.003206
C      2.408131    1.538597    0.445678
C      2.316297   -0.601244   -0.509494
C      0.341718    0.290237    0.754373
C     -0.457186   -0.752225    0.613453
C     -2.839262   -0.089970    0.318778
C      1.691751    0.382204    0.216326
C     -1.818830   -0.795258    1.179236
N     -2.445889    1.279452    0.054887
O     -2.256040   -2.101783    1.394329
Cl     0.692051    0.000000    0.000000
H     -4.275209   -0.858326   -1.110393
H     -2.688612   -0.373713   -1.839617
H     -2.851792   -1.895359   -0.808654
H      5.315820    0.783307   -1.156284
H      4.270181    2.616725    0.145779
H      4.049073   -1.288058   -1.574195
H      2.009615    2.372007    1.004529
H      1.779600   -1.516069   -0.703842
H     -0.102135    1.112426    1.327532
H     -0.092380   -1.603429    0.060809
H     -3.775414   -0.029725    0.928063
H     -1.868132   -0.291534    2.188262
H     -2.564648    1.555859   -0.939670
H     -2.848342    1.925787    0.742731
H     -1.732611   -2.691091    0.799949
H     -0.692051    0.000000    0.000000
