43

C     -1.546929   -2.840998    0.771555
C     -2.183823    2.637259    0.589753
C     -3.512367    2.833722    0.282380
C      3.790911   -1.432776    0.017759
C      1.289736   -2.111281    0.440529
C      2.761103    1.035904   -0.530447
C     -0.118215    1.247004    0.629690
C      6.393603    0.999515   -0.447459
C     -5.777070    0.280468   -0.849335
C     -1.548657    1.425780    0.283942
C      2.408226   -1.209418    0.098401
C      1.889672    0.032227   -0.177004
C     -4.197802    1.813774   -0.330491
C      4.665567   -0.427201   -0.336348
C      4.119702    0.809625   -0.608030
C      0.207653   -1.177484    0.920377
C     -2.239094    0.402527   -0.331773
C     -3.562593    0.613415   -0.631808
C     -1.509117   -0.856584   -0.630688
C      0.422013    0.027581   -0.018241
N     -1.086273   -1.566912    0.496097
O     -5.515899    1.669843   -0.772708
O      6.045335   -0.355866   -0.494750
O      5.219827    1.625510   -0.934763
O     -4.489162   -0.216553   -1.237940
O     -0.267213   -0.400070   -1.150556
H     -2.642619   -2.913171    0.894916
H     -1.102113   -3.213624    1.717065
H     -1.251159   -3.551566   -0.028850
H     -1.663101    3.451181    1.071175
H     -4.025587    3.772843    0.513366
H      4.210473   -2.420350    0.236380
H      0.963489   -2.602252   -0.498501
H      1.564412   -2.857507    1.213866
H      2.349701    2.010082   -0.746358
H     -0.090394    1.120650    1.751232
H      0.476297    2.158134    0.430793
H      6.614866    1.340634    0.580324
H      7.204741    1.207172   -1.145305
H     -6.038131   -0.061148    0.167431
H     -6.538531    0.066633   -1.600830
H      0.309232   -0.892370    1.970727
H     -2.000713   -1.474352   -1.395236
