49

C     -5.023360   -0.711392    0.685804
C     -0.902736    3.699261   -2.069800
C     -3.840152    0.142285    1.164997
C      5.460077   -0.039603    0.012444
C      5.344640    0.087652   -1.336672
C      4.308888   -0.044709    0.795258
C      4.085954    0.208843   -1.897329
C      1.426849   -0.000389    2.162680
C      0.435175   -1.089150    2.394785
C     -2.630308   -1.681721    0.009316
C     -1.062721   -0.626453   -1.416675
C     -0.304209   -2.193531    0.374756
C     -1.361751   -1.962824   -0.716665
C     -2.628121   -0.550508    0.701662
C      3.056660    0.075022    0.246856
C      1.772039    0.103560    0.737834
C      2.953860    0.201957   -1.106676
C      0.887669    0.247607   -0.316668
C     -1.218822   -0.058304    0.967399
C     -0.941278    1.734630   -0.661968
C     -0.617547    0.337439   -0.348879
N      1.647114    0.303395   -1.416498
N     -0.536901   -1.260294    1.402178
O     -1.595896    2.413388    0.160599
O     -0.551781    2.347361   -1.840794
H     -5.985242   -0.223998    0.929877
H     -5.017734   -1.692344    1.205880
H     -4.931781   -0.889270   -0.407529
H     -1.637258    3.750583   -2.885345
H     -0.013687    4.316667   -2.329808
H     -1.314427    4.160500   -1.130690
H     -3.939083    1.091859    0.613907
H     -3.917002    0.235299    2.254235
H      6.424535   -0.133937    0.458474
H      6.237855    0.095127   -1.983276
H      4.382382   -0.144663    1.865778
H      4.044625    0.307503   -2.973726
H      2.359634   -0.184483    2.758804
H      1.057316    0.996251    2.527678
H     -0.086249   -0.850822    3.369143
H      0.970348   -2.037188    2.553424
H     -3.439983   -2.372584   -0.060931
H     -1.983514   -0.249736   -1.900773
H     -0.284041   -0.768126   -2.169115
H      0.712301   -2.213392   -0.042562
H     -0.511067   -3.221550    0.765499
H     -1.423762   -2.791704   -1.416176
H     -1.196881    0.723148    1.725427
H      1.329372    0.413336   -2.416135
