34

C      3.659544    1.033899   -0.866861
C      2.329096    0.873238   -0.573079
C      4.163454   -1.048859    0.118725
C     -4.531523    0.129347   -0.415696
C     -2.697630   -1.202642   -1.332593
C      4.591529    0.079855   -0.520999
C     -4.067909   -0.926070   -1.180118
C      1.874860   -0.264629    0.080472
C      2.794116   -1.223734    0.424461
C     -3.576531    0.936989    0.206388
C     -1.765078   -0.402735   -0.716628
C     -2.246730    0.639063    0.028544
C     -1.203435    1.516219    0.574528
C      0.034455    0.947685    1.053825
C      0.423570   -0.406086    0.392760
O      5.961439    0.258170   -0.814834
O     -5.054429   -1.694035   -1.796920
O      2.463936   -2.394086    1.081808
O     -3.971432    1.989254    0.982248
O     -1.434295    2.753217    0.606621
O     -0.210326    0.610864    2.430564
O     -0.387110   -0.558307   -0.782334
H      4.018663    1.933973   -1.390515
H      1.576503    1.610547   -0.844130
H      4.851710   -1.818939    0.430939
H     -5.575361    0.334457   -0.279545
H     -2.383458   -2.024844   -1.935880
H      0.891343    1.631965    1.070484
H      0.230529   -1.209455    1.060528
H      6.445004    0.739878   -0.034474
H     -4.781115   -2.457793   -2.357226
H      1.574074   -2.678198    1.381870
H     -3.494164    2.649528    1.494378
H     -0.503301   -0.357736    2.422688
