89

C     -2.724308   -3.624966    4.199480
C      4.067091   -1.678597   -4.856755
C     -2.397189    6.862448   -0.216966
C     -2.448459   -3.987345   -3.039818
C     -2.668054    0.426830   -2.833871
C     -3.960591    3.203788    0.150389
C      0.610976   -4.413843   -0.163519
C      1.440911   -3.583491    1.887826
C      3.376906    1.243747   -2.160779
C      1.782095   -3.868344   -0.782068
C      2.598694   -3.050894    1.249235
C      3.607598    0.251138   -3.086397
C      1.887159    4.827899    1.308589
C     -0.995395   -0.768980    2.591703
C      2.344184    3.988706    2.462114
C     -1.997948   -1.537260    3.444507
C      2.908324    2.283792   -0.052240
C     -0.833762   -4.640892    1.915281
C      3.494554   -0.224193   -0.289837
C     -0.366976    5.142056    0.422533
C     -1.902801   -2.981301   -0.298398
C      0.451874   -4.250809    1.199763
C      3.312154    1.041345   -0.775767
C      0.651636    4.238414    0.737205
C      2.721638   -3.213022   -0.098480
C     -1.281544   -1.102568    1.149763
C     -1.626346   -2.428125    0.957112
C      1.783502    2.135217    0.966378
C     -1.756714   -3.418977    2.036161
C      3.774421   -1.013692   -2.555092
C      3.713457   -1.236527   -1.197747
C     -1.519678    4.629189   -0.069624
C     -1.837763   -2.208550   -1.409503
C      0.527933    2.872441    0.564281
C     -1.205318   -0.267261    0.039790
C     -1.497096   -0.905747   -1.196563
C     -1.622892    3.289326   -0.227271
C     -0.622423    2.321365    0.069687
N      2.217797    2.624443    2.234573
N     -1.720680   -2.953796    3.359672
O      4.010937   -2.033272   -3.506181
O     -2.574267    5.477027   -0.403787
O     -2.099946   -2.705295   -2.685012
O     -1.451903   -0.166913   -2.424478
O     -2.892643    2.877070   -0.747499
O      3.874402   -2.639832   -0.829738
O     -0.918599    1.045261   -0.169181
H     -3.656148   -3.720827    3.603375
H     -2.952368   -3.064728    5.113759
H     -2.334224   -4.652431    4.381479
H      4.920397   -0.960052   -5.026568
H      3.130803   -1.188835   -5.209481
H      4.282511   -2.527992   -5.531689
H     -3.342377    7.355687   -0.525229
H     -1.500943    7.230123   -0.770777
H     -2.247323    7.046291    0.865479
H     -1.612807   -4.397384   -3.685138
H     -2.654510   -4.705025   -2.246066
H     -3.324476   -3.934584   -3.741590
H     -3.418852    0.439040   -2.008280
H     -3.118335   -0.137951   -3.676427
H     -2.489920    1.457078   -3.175933
H     -4.747568    3.783836   -0.390678
H     -4.392256    2.260757    0.570265
H     -3.645894    3.837150    0.983621
H     -0.008611   -4.920306   -0.949211
H      1.581345   -3.329454    2.981759
H      3.246067    2.269362   -2.580656
H      1.736561   -4.120534   -1.892128
H      3.308270   -2.567269    1.976340
H      3.646555    0.451120   -4.145967
H      2.706364    4.925773    0.585354
H      1.618865    5.875145    1.704677
H     -0.000479   -1.163079    2.896572
H     -1.056921    0.230327    2.944686
H      3.439452    4.280120    2.636771
H      1.793509    4.255906    3.405958
H     -1.823804   -1.231631    4.496076
H     -3.044853   -1.307864    3.199980
H      3.708994    2.830916    0.437853
H      2.515329    3.064967   -0.809900
H     -0.748594   -5.052004    2.932660
H     -1.388043   -5.500338    1.455167
H      3.590138   -0.444769    0.838495
H     -0.235780    6.188368    0.567628
H     -2.188193   -4.050554   -0.398043
H      1.602691    1.068971    1.080896
H     -2.803515   -3.891106    1.897050
H      1.673996    2.140772    2.979724
