89

C     -3.455876   -2.990815   -3.622441
C      6.545073   -3.684750    1.154193
C     -0.462098    7.326330   -1.298423
C     -4.401792   -2.268341    3.488197
C     -2.838614    1.977751    3.147866
C     -3.111092    3.734886   -0.830489
C     -1.131425   -3.959642    1.164908
C     -0.107197   -4.083025   -0.965728
C      4.630340   -0.097571    1.268672
C      0.161938   -3.826418    1.756562
C      1.172140   -3.949122   -0.327132
C      5.302231   -1.301790    1.228178
C      3.149812    3.893386   -1.215562
C     -1.219129   -0.481328   -1.973101
C      3.299937    2.588896   -1.970012
C     -2.181431   -1.078921   -2.963706
C      2.791405    1.446631    1.248250
C     -2.633463   -4.023340   -0.885738
C      2.469189   -1.098458    1.619250
C      1.018429    5.023023   -0.953765
C     -3.184220   -1.803595    0.911241
C     -1.258577   -4.080179   -0.205124
C      3.245469    0.022716    1.455593
C      1.710693    3.852737   -0.762431
C      1.283903   -3.816159    0.997798
C     -1.752039   -0.468750   -0.556830
C     -2.580740   -1.560538   -0.338642
C      2.083727    1.566017   -0.106415
C     -2.965192   -2.597757   -1.308983
C      4.500180   -2.417539    1.383884
C      3.130228   -2.299223    1.568271
C     -0.301856    4.995271   -0.584122
C     -2.978519   -0.975726    1.962116
C      1.156990    2.692787   -0.233021
C     -1.523132    0.389479    0.477352
C     -2.160784    0.085034    1.712696
C     -0.853916    3.869693   -0.067724
C     -0.207732    2.641520    0.154496
N      3.110152    1.519440   -1.082874
N     -2.560077   -2.411315   -2.630755
O      5.157526   -3.661062    1.344565
O     -1.057094    6.172516   -0.760151
O     -3.562043   -1.191062    3.214468
O     -1.985568    0.912558    2.860333
O     -2.225476    4.054591    0.249395
O      2.552722   -3.624358    1.664960
O     -0.789270    1.565241    0.661868
H     -3.739801   -4.002433   -3.292706
H     -4.341154   -2.332412   -3.756550
H     -2.889759   -3.086105   -4.572932
H      7.059209   -3.217249    2.009158
H      6.774204   -3.154517    0.200788
H      6.873704   -4.752553    1.012026
H     -1.154857    8.173441   -1.363983
H     -0.170477    7.084256   -2.360903
H      0.450231    7.651350   -0.784185
H     -5.099064   -2.487087    2.629814
H     -3.793883   -3.166472    3.720186
H     -5.019404   -2.079705    4.413349
H     -2.251683    2.724748    3.748423
H     -3.638655    1.621460    3.835510
H     -3.235601    2.513036    2.277423
H     -4.103499    4.187229   -0.703773
H     -2.688558    4.113839   -1.788133
H     -3.174290    2.623396   -0.949121
H     -1.862304   -3.963598    2.010701
H      0.099400   -4.173263   -2.064745
H      5.275660    0.793742    1.144086
H      0.057485   -3.754053    2.874339
H      1.976111   -4.014202   -1.127973
H      6.365908   -1.368571    1.086783
H      3.330099    4.767598   -1.884661
H      3.806928    3.921578   -0.335978
H     -0.954446    0.474548   -2.424703
H     -0.283693   -1.115310   -2.032832
H      4.311702    2.504172   -2.427727
H      2.513813    2.646639   -2.783638
H     -3.079977   -0.441333   -3.019634
H     -1.688346   -1.077496   -3.950232
H      2.212827    1.919955    2.031210
H      3.671441    2.119265    1.113846
H     -2.729372   -4.741269   -1.718172
H     -3.499482   -4.307986   -0.264928
H      1.354885   -1.027142    1.876881
H      1.473450    5.919991   -1.369333
H     -3.840007   -2.683576    1.056772
H      1.542610    0.577274   -0.209254
H     -4.119095   -2.584756   -1.359011
H      3.224008    0.613850   -1.548129
