24

C      1.489817    1.275836   -0.197949
C     -2.246024   -0.345737    0.301645
C      0.160266    1.908470   -0.124890
C     -2.023225    1.010456   -0.318942
C      2.463955   -0.971628   -0.554176
C      1.308905   -0.014735   -0.423002
C     -0.814767   -0.650837    0.762526
C     -0.121014   -0.310677   -0.528078
N     -0.691987    0.995156   -0.846765
O      2.383994   -1.974490    0.436422
O     -0.704026   -1.992302    1.097311
H      2.473478    1.795628   -0.083380
H     -2.500399   -1.067612   -0.480340
H     -2.943155   -0.324428    1.152706
H     -0.163714    1.894945    0.939808
H      0.144153    2.932796   -0.549982
H     -2.105855    1.752650    0.528447
H     -2.794094    1.271143   -1.069080
H      3.434417   -0.470502   -0.458268
H      2.412180   -1.476433   -1.522275
H     -0.573192    0.009263    1.596229
H     -0.353535   -1.075881   -1.269479
H      2.771544   -1.634628    1.284484
H     -1.007722   -2.536454    0.327029
