38

C     -2.974826   -1.686608    1.102058
C     -1.445775    2.829266    1.414594
C      3.934494   -0.682291   -0.140751
C      0.628900   -2.027543   -0.114244
C     -0.637957   -2.080324    0.649559
C     -1.846892   -0.880046   -1.062973
C     -1.704632    0.633485   -0.983948
C      1.667187   -1.310020    0.748557
C     -1.759816   -1.560646    0.222209
C     -0.838929    2.458380    0.311093
C     -0.506072    1.047947   -0.123308
C      0.652151    1.184160   -0.992546
C      2.012700    0.868235   -0.505791
C     -0.333927    3.278317   -0.768049
C      2.447543   -0.290111    0.049281
O     -0.713518    4.465485   -0.974241
O      0.570967    2.545541   -1.459492
O      2.369262    1.003031    0.830972
H     -3.498806   -2.612396    0.769383
H     -2.676834   -1.824009    2.167312
H     -3.638994   -0.817699    0.997444
H     -1.619653    3.865818    1.599078
H     -1.762972    2.095781    2.122686
H      4.015023   -1.124648   -1.176392
H      4.231497   -1.429312    0.594746
H      4.582011    0.213187   -0.046922
H      0.569205   -1.625090   -1.116292
H      0.901229   -3.117486   -0.270349
H     -0.608764   -2.581531    1.610902
H     -1.245391   -1.319146   -1.888929
H     -2.913508   -1.017252   -1.444581
H     -2.638476    1.121060   -0.639842
H     -1.549912    0.972471   -2.037686
H      1.186133   -0.987411    1.722626
H      2.321106   -2.156775    1.131469
H     -0.443278    0.485268    0.793419
H      0.507189    0.605581   -1.956898
H      2.762334    1.457331   -1.134154
