116

C      6.199541    4.926128   -0.204153
C     -6.058159    1.093595    2.950620
C     -6.340052    4.312363    0.971269
C      2.179620    0.201727   -3.495145
C      0.523825   -3.302231    3.141306
C     -3.133626    3.564819   -3.361054
C      4.836030    4.292651   -0.031663
C     -4.918703    0.212943    2.577119
C      6.342249   -4.502183   -1.144567
C      5.395129   -4.902588   -2.047678
C     -6.245229   -2.167100    1.030548
C      5.989486   -3.500648   -0.256341
C      4.147065   -4.316073   -2.052272
C      4.832021   -1.193815    1.625649
C     -6.084863   -0.903847    0.691679
C     -3.401161   -2.922048   -0.510198
C     -5.216440   -2.853499    1.825745
C      5.908143   -0.241272    1.101926
C     -3.114498   -3.384041    0.900560
C     -0.638942   -1.088673    0.170117
C     -0.384738   -0.441557   -2.460094
C      3.467938    2.624816    1.110921
C      2.214986    0.581188    0.863062
C      4.406833    0.944555   -0.370238
C      5.936805    2.191764    0.832631
C     -3.167136   -0.878374   -3.919287
C     -5.239432    3.294734    0.864349
C      3.132311    1.460308    0.153410
C      4.737705   -2.911638   -0.259957
C      4.133874   -1.899637    0.512569
C     -1.780994   -1.091394   -0.603744
C      0.620919   -0.781357   -0.297497
C      3.803403   -3.307639   -1.152001
C     -1.641727   -0.762641   -1.927454
C      0.726527   -0.458584   -1.625764
C      2.880667   -1.723901    0.067024
C     -3.684602   -1.144274    1.020208
C     -3.936940   -0.754854   -1.450980
C     -4.542215    0.996997    0.255840
C      1.395254   -1.439665    1.841828
C     -3.551892    1.693849   -1.821448
C      4.813398    3.205761    0.985329
C     -4.866551   -0.189689    1.118063
C     -3.194027   -1.405081   -0.340467
C      1.856334   -0.770886    0.566200
C     -4.375900    0.631295   -1.210145
N      2.704218   -2.602383   -0.955337
N      5.324816    0.940116    0.717370
N     -3.881573   -2.398003    1.662585
N     -2.946607   -0.802724   -2.521878
O     -4.330556   -0.897215   -4.419184
O     -4.049385    3.566549    1.198323
O      1.434187   -0.763864    2.891275
O     -2.362673    1.866073   -1.449184
O      5.085687    3.843473    2.225815
O     -5.665277    0.753738   -1.786297
O      1.937801   -0.143059   -2.165027
O      0.943926   -2.725299    1.915938
O     -3.995892    2.558574   -2.818010
O     -5.497065    2.020058    0.393840
H      6.101982    6.013412   -0.471768
H      6.756258    4.892438    0.734896
H      6.744071    4.458983   -1.054746
H     -6.775765    1.187942    2.117025
H     -5.730010    2.062999    3.384823
H     -6.666250    0.568126    3.760026
H     -7.244987    3.892045    1.443706
H     -6.624892    4.636390   -0.062172
H     -5.963686    5.158139    1.554251
H      1.949769   -0.667069   -4.147279
H      1.657330    1.112522   -3.781958
H      3.275057    0.388169   -3.612382
H     -0.275909   -2.690675    3.629856
H      1.385701   -3.317464    3.820150
H      0.125486   -4.313614    3.012854
H     -2.119040    3.158752   -3.543059
H     -3.582896    3.875149   -4.327026
H     -3.109363    4.478330   -2.724837
H      4.183766    5.120023    0.382782
H      4.362635    4.050065   -1.004362
H     -4.853897   -0.658546    3.262651
H     -3.969150    0.793368    2.814232
H      7.345943   -4.925715   -1.090938
H      5.653815   -5.681683   -2.746661
H     -7.130907   -2.713549    0.729832
H      6.740157   -3.189004    0.453609
H      3.445977   -4.678906   -2.791888
H      4.190589   -0.769376    2.385027
H      5.448469   -1.943628    2.221735
H     -6.825420   -0.358286    0.102893
H     -4.410314   -3.165257   -0.859340
H     -2.688703   -3.308421   -1.253005
H     -5.233792   -3.948708    1.523941
H     -5.486746   -2.906869    2.915758
H      6.430591   -0.807166    0.296147
H      6.671077   -0.075544    1.885923
H     -2.036048   -3.332763    1.068334
H     -3.527536   -4.400566    1.036721
H     -0.757104   -1.338212    1.208858
H     -0.277328   -0.183983   -3.501199
H      3.354307    2.250239    2.172873
H      2.730503    3.441832    1.037037
H      1.230053    1.183878    0.848567
H      2.406990    0.696665    1.983390
H      4.383066    0.021279   -0.960740
H      4.799152    1.705680   -1.117322
H      6.704325    2.249174    1.602056
H      6.441526    2.436514   -0.146620
H     -2.335006   -0.922348   -4.602792
H      2.623499    2.025862   -0.691808
H     -2.856497   -0.618065    1.583158
H     -4.773094   -1.422006   -1.800655
H     -3.566788    1.426681    0.631946
H      1.849775   -2.769337   -1.551208
H      6.044705    3.892648    2.395507
H     -5.879286    1.723121   -1.682855
