46

C     -3.771476   -0.211138    0.842590
C     -3.030421    3.625955    0.313691
C     -2.544900   -0.976381    1.063262
C      4.177082    1.798046    0.907689
C      3.190212    2.742544    0.724955
C      3.919807    0.487663    0.521603
C      1.952054    2.401871    0.165096
C      2.604998   -2.459206   -0.551101
C      1.411460   -3.316305   -0.142025
C     -1.054977   -1.339684   -2.100524
C     -0.382884   -1.923302    0.667237
C     -1.514828   -1.091989    0.222083
C      2.706076    0.153759   -0.027692
C      2.195749   -1.004605   -0.496984
C     -1.600343   -0.394856   -1.054092
C      1.681124    1.111866   -0.219591
C      0.232953   -1.864759   -1.570816
C      0.925953   -0.732323   -0.951413
C     -0.765595    0.922408   -1.109028
C     -1.355494    1.896460   -0.198619
N      0.099168   -2.770968   -0.421714
N      0.603386    0.523850   -0.783509
O     -0.941678    2.102699    0.968619
O     -2.461165    2.694225   -0.562808
H     -4.570674   -0.619705    1.534781
H     -4.233546   -0.321036   -0.159805
H     -3.687599    0.855414    1.134041
H     -3.983816    3.970604   -0.110020
H     -2.385677    4.541731    0.431361
H     -3.183711    3.218395    1.336174
H     -2.449117   -1.513866    2.015755
H      5.125645    2.074283    1.340789
H      3.354733    3.771019    1.012396
H      4.666136   -0.305163    0.642355
H      1.213670    3.179334    0.018367
H      3.446258   -2.687406    0.103317
H      2.882593   -2.677158   -1.585207
H      1.443291   -3.520258    0.948773
H      1.527668   -4.304375   -0.642099
H     -0.848995   -0.751359   -2.998370
H     -1.743529   -2.139980   -2.357579
H      0.410449   -1.338661    1.151799
H     -0.704957   -2.665124    1.459839
H     -2.613352   -0.058170   -1.312906
H      0.835829   -2.298624   -2.364274
H     -0.777559    1.214276   -2.167565
