24

C      4.003075    1.145288   -0.049496
C     -3.492814    0.834926   -0.032231
C      3.095863   -0.008050   -0.217076
C      1.776698    0.141451    0.029861
C      0.907959   -0.998559   -0.140167
C     -1.143857   -2.197715   -0.140548
C     -2.086251    0.717348   -0.471277
C     -0.383165   -0.963783    0.072115
C     -1.055424    0.266217    0.508207
O     -0.569196   -3.240675   -0.511684
O     -1.783458    0.988390   -1.622415
O     -1.747543    0.041882    1.731430
H      3.697017    1.801855    0.780371
H      5.040034    0.798507    0.147314
H      4.041548    1.702867   -1.016900
H     -4.091311    1.517974   -0.668487
H     -3.938598   -0.197820   -0.116815
H     -3.485032    1.124640    1.032019
H      3.464620   -0.969374   -0.533088
H      1.471901    1.123126    0.340274
H      1.370825   -1.955742   -0.470326
H     -2.203745   -2.206638    0.023643
H     -0.398787    1.125359    0.714322
H     -2.490359   -0.591475    1.602162
