26

C      2.741240    2.347083   -0.251571
C     -2.821971    1.892152   -0.542060
C      1.738668    1.225241   -0.298189
C      1.835349    0.169412    0.466745
C      0.884717   -0.932602    0.447495
C      0.904149   -2.036192    1.183989
C     -0.204948   -2.896138    0.883244
C     -0.879317   -2.362796   -0.330381
C     -1.336872    0.010452   -0.092933
C     -0.297916   -0.969911   -0.448671
Cl     2.146498   -2.372687    2.370468
Cl    -2.651917   -2.316510   -0.125400
O     -0.543450   -3.922495    1.536943
O     -1.818104   -0.046215    1.088691
O      0.120744   -0.759340   -1.762493
O     -1.817417    0.977229   -0.951027
H      2.243774    3.261467    0.100628
H      3.517790    2.045679    0.487882
H      3.174980    2.425678   -1.258800
H     -2.867913    1.976595    0.562965
H     -3.794434    1.466923   -0.906568
H     -2.646924    2.874477   -1.003867
H      0.907016    1.286517   -0.984440
H      2.688255    0.136646    1.151366
H     -0.583779   -2.945249   -1.216608
H     -0.638217   -0.535415   -2.356565
