80

C      6.545384    1.970316   -2.534276
C      6.501797    2.720439    0.801147
C      7.119695   -0.108918    1.707103
C     -5.028853   -2.563701   -0.562335
C     -4.039314   -1.534151    1.418736
C     -5.631162    1.936490    2.374117
C     -7.255482    0.324423   -1.451571
C      0.631311   -1.029562   -2.597582
C      4.143233   -1.889864   -0.319684
C     -3.973698    0.770258   -0.413280
C     -1.453398   -2.105917    0.468956
C      4.516732    1.577902   -1.282679
C     -5.586966    2.480860    0.165520
C      5.983439    1.722872   -1.365121
C      6.837243    1.587080   -0.123256
C      6.283181    0.316334    0.544140
C     -5.433456    1.015173   -0.311167
C     -1.363459   -0.666685    0.024226
C     -2.656367   -2.705418   -0.192463
C     -3.515704   -0.559869   -0.846086
C      2.732995    0.797327    0.124668
C      2.050411   -0.143811    1.014866
C      0.099968   -0.442318   -0.416737
C     -3.859060   -1.747872   -0.053777
C      4.135675    0.466925   -0.265365
N      0.917053   -0.643442    0.724489
O     -2.976881   -3.980787    0.257907
O      2.771741    2.077191    0.748379
O      2.649978   -0.501901    2.210137
O     -5.039773    2.699792    1.397790
O     -6.065433    1.030052   -1.566363
O      0.336709   -1.469072   -1.330608
O      4.317422   -0.691249   -0.904548
O     -2.130658   -0.464970   -1.102885
O      4.976239    0.592639    0.853229
H      5.949943    2.067217   -3.425418
H      7.614499    2.075110   -2.587837
H      5.551628    3.208451    0.475588
H      7.324097    3.461517    0.912001
H      6.307813    2.353514    1.848054
H      6.823490    0.372728    2.656801
H      7.100387   -1.208080    1.800169
H      8.185441    0.145613    1.445712
H     -4.854215   -3.657869   -0.441321
H     -5.217445   -2.399185   -1.648920
H     -5.941869   -2.361127    0.049640
H     -5.104070   -1.592516    1.741698
H     -3.640343   -0.584669    1.788353
H     -3.514961   -2.331932    2.023952
H     -6.736127    2.145475    2.469411
H     -5.453808    0.867446    2.305318
H     -5.218923    2.296853    3.355381
H     -7.719196    0.377039   -2.483573
H     -7.125624   -0.759269   -1.276970
H     -7.952655    0.788393   -0.724127
H      0.792687   -1.955551   -3.224218
H     -0.251244   -0.509649   -3.061327
H      1.520261   -0.399651   -2.678247
H      3.123587   -2.067036    0.030222
H      4.826387   -2.088529    0.544246
H      4.364661   -2.738722   -1.035577
H     -3.599799    1.495211   -1.202529
H     -3.485671    1.148471    0.513647
H     -0.566681   -2.683482    0.082964
H     -1.436168   -2.226518    1.568464
H      4.080057    2.534560   -0.962732
H      4.094978    1.312309   -2.270518
H     -5.074744    3.146052   -0.566784
H     -6.672456    2.765901    0.093558
H      7.895329    1.497652   -0.357982
H      6.404962   -0.470610   -0.247356
H     -6.005030    0.435281    0.402938
H     -1.542287    0.059718    0.836744
H     -2.450900   -2.725626   -1.294682
H     -3.949676   -0.727359   -1.884393
H      2.165469    0.961154   -0.832535
H      0.201260    0.555979   -0.873138
H     -2.714711   -4.687769   -0.411757
H      2.226736    2.053449    1.570538
H      2.134386   -0.786511    3.031936
