80

C      7.290540    0.687926    1.448069
C      7.338138   -0.350292   -1.091734
C      4.882536    0.710383   -1.695207
C     -4.176022    3.187967   -1.413742
C     -3.354669    2.708896    0.824277
C     -7.569817    0.084519   -0.576864
C     -4.553715   -2.669939    1.910751
C     -0.357414   -1.817987   -2.580897
C      4.473517   -1.975792    3.022999
C     -4.480276    0.337022    0.480795
C     -0.971340    1.479931   -0.242996
C      4.841018    0.418889    1.577088
C     -5.754393   -1.411468   -0.860321
C      6.178277    0.153830    0.994558
C      6.215730   -0.777556   -0.173243
C      4.926438   -0.609461   -0.931929
C     -4.883951   -1.092427    0.303277
C     -1.584998    0.099860   -0.134704
C     -1.842726    2.364310   -1.120835
C     -3.704348    0.833291   -0.727090
C      2.531917   -0.272064    1.663425
C      1.460870   -1.202519    1.107268
C     -0.512602   -0.933152   -0.441454
C     -3.255748    2.262862   -0.608871
C      3.912953   -0.680817    1.175072
N      0.606185   -0.858857    0.376777
O     -1.346071    3.658053   -1.119894
O      2.244673    0.991930    1.143325
O      1.593803   -2.546676    1.562610
O     -7.077135   -1.152870   -0.802429
O     -5.402111   -1.704127    1.432963
O     -0.096146   -0.732949   -1.782044
O      4.302763   -1.919715    1.660946
O     -2.679188   -0.026408   -0.960875
O      3.793146   -0.822187   -0.202725
H      7.225930    1.361561    2.297692
H      8.258453    0.485929    1.013694
H      7.611404    0.709595   -0.899173
H      7.038032   -0.404708   -2.161095
H      8.249038   -0.964974   -0.927452
H      5.628271    1.423565   -1.319820
H      3.866489    1.157267   -1.660479
H      5.107679    0.570638   -2.779184
H     -4.388853    2.807356   -2.418076
H     -3.646329    4.158827   -1.507158
H     -5.081550    3.351986   -0.809750
H     -4.376588    2.662294    1.215705
H     -2.724714    2.104071    1.491714
H     -3.015770    3.774681    0.920681
H     -8.714658   -0.003169   -0.669779
H     -7.471966    0.423670    0.494005
H     -7.281795    0.887161   -1.267519
H     -3.572878   -2.208228    2.180856
H     -4.312827   -3.426605    1.118531
H     -4.943093   -3.174087    2.820327
H      0.132949   -2.765554   -2.274245
H     -0.044317   -1.604904   -3.608770
H     -1.476518   -1.928703   -2.612704
H      4.782102   -3.038544    3.265605
H      3.574650   -1.768262    3.613219
H      5.361427   -1.379416    3.363332
H     -5.335991    0.956735    0.716411
H     -3.810074    0.410178    1.399488
H     -0.883018    1.947745    0.737923
H     -0.004952    1.390600   -0.784016
H      4.410139    1.380785    1.211874
H      4.933673    0.464109    2.668192
H     -5.374276   -0.935402   -1.815172
H     -5.589399   -2.515553   -1.092994
H      6.359464   -1.819997    0.095097
H      4.935416   -1.408364   -1.731732
H     -3.859508   -1.633172    0.132230
H     -1.897643   -0.050302    0.904909
H     -1.832354    1.904537   -2.131035
H     -4.411495    0.792798   -1.612940
H      2.453303   -0.298497    2.742122
H     -0.936729   -1.960640   -0.418172
H     -1.211938    3.914770   -2.089257
H      2.382747    1.041868    0.185557
H      0.898236   -3.216048    1.210551
