45

C     -1.991116    3.372605   -0.190068
C      5.530618   -1.073389   -0.316767
C     -2.673035   -2.191872    0.716414
C     -2.129849   -2.443546   -0.671118
C     -1.952119   -1.018686    1.356457
C      2.238658    0.875148    1.553560
C      3.308650    0.263400    0.972555
C     -0.710301   -1.947632   -0.827596
C     -0.690750    0.334194   -1.879676
C     -1.411252    1.629580   -1.607173
C     -0.153987    1.312365    1.693153
C      1.845802   -0.804754   -0.606614
C      0.975686    0.637778    1.043639
C      3.131603   -0.588831   -0.119546
C     -1.710355   -0.014632    0.281467
C      0.755430   -0.191103   -0.026698
C     -1.360356    1.353684    0.787330
C     -0.577922   -0.473299   -0.604720
N     -1.105624    2.205409   -0.332194
O      4.191920   -1.219812   -0.726156
H     -1.735478    3.984941    0.671274
H     -3.010554    2.934780    0.003464
H     -2.067915    3.912496   -1.139068
H      5.643482   -1.071295    0.791640
H      6.110525   -1.936167   -0.751100
H      5.974508   -0.117275   -0.696628
H     -2.649482   -3.089593    1.354009
H     -3.744447   -1.920882    0.595399
H     -2.762822   -2.010874   -1.464073
H     -2.097182   -3.550336   -0.802251
H     -0.942331   -1.405517    1.677677
H     -2.530483   -0.617981    2.211110
H      2.384840    1.531802    2.396693
H      4.324417    0.422635    1.343200
H     -0.114726   -2.455904   -0.021982
H     -0.334398   -2.302158   -1.790670
H     -1.292189   -0.229964   -2.621127
H      0.309247    0.499684   -2.328712
H     -1.076781    2.350982   -2.386409
H     -2.521215    1.536850   -1.761449
H      0.119419    2.372064    1.931823
H     -0.408111    0.841096    2.665119
H      1.750011   -1.471582   -1.453899
H     -2.618638    0.073117   -0.343915
H     -2.221402    1.702473    1.423623
