58

C     -6.719118    3.264634   -1.769008
C      1.280185    0.719413    1.905763
C      7.857133    1.966331    0.583488
C     -7.047773    1.863761   -1.333887
C     -7.388726   -2.096234    0.005027
C     -6.262224   -2.755469    0.448624
C     -7.242455   -0.794023   -0.428582
C     -5.049957   -2.126819    0.452339
C      3.619721    1.426474    0.108647
C      4.980675    1.625364    0.265874
C     -1.254903   -0.158648    0.461917
C     -2.543418   -0.981431    0.511398
C      1.671471   -0.114648   -0.353010
C      4.032565   -0.865657   -0.277728
C      1.093514   -0.453801    0.996585
C      3.114998    0.173996   -0.167111
C     -6.020475   -0.134100   -0.434006
C     -4.915185   -0.815918    0.013577
C      5.864063    0.577096    0.150620
C      5.379921   -0.676741   -0.123597
N      7.643685   -1.698706   -1.539441
N     -0.213655   -1.001992    0.948342
O      7.317819   -2.123986    1.010382
O      5.815894   -3.291898   -0.537957
O      7.222189    0.749946    0.302624
O     -5.899309    1.169711   -0.873003
O     -3.647374   -0.261641    0.053617
S      6.518566   -1.994149   -0.268202
Cl     0.691488    0.000000    0.000000
H     -7.528638    3.962347   -1.485554
H     -5.772424    3.632006   -1.300900
H     -6.582812    3.261010   -2.866943
H      2.333932    0.734571    2.246607
H      0.980204    1.683163    1.461359
H      0.614635    0.541423    2.795038
H      7.675447    2.709466   -0.239722
H      8.949106    1.760817    0.628375
H      7.570563    2.361694    1.569490
H     -7.510396    1.325261   -2.208429
H     -7.793726    1.878882   -0.537840
H     -8.350854   -2.602578    0.004913
H     -6.376088   -3.779359    0.790106
H     -8.123575   -0.251454   -0.785102
H     -4.170077   -2.662313    0.806258
H      2.933830    2.275658    0.204386
H      5.381339    2.598503    0.480722
H     -1.389806    0.697948    1.169077
H     -1.093501    0.232949   -0.537093
H     -2.741132   -1.321673    1.558432
H     -2.451188   -1.900299   -0.096097
H      1.585810   -1.030655   -0.985112
H      1.187830    0.768014   -0.821441
H      3.682223   -1.864759   -0.493543
H      1.763039   -1.271160    1.402123
H      8.258653   -0.911872   -1.256874
H      8.237922   -2.536359   -1.661937
H     -0.478147   -1.482100    1.812385
H     -0.691488    0.000000    0.000000
