53

C     -2.070801   -2.871444   -0.083798
C     -1.480024   -2.667352   -1.424941
C      5.272572   -0.240846    0.572292
C      4.443997    0.148694   -0.651513
C      4.351212    0.643648    1.405311
C     -2.818851    2.337962   -0.887072
C     -4.145461    2.079232   -0.661182
C     -1.593113   -1.987339    1.006407
C     -1.134469   -1.218416   -1.749473
C     -0.377672    0.058600    1.677912
C      1.111200    0.193075    1.427019
C     -0.458608    1.743991   -0.728314
C     -3.550379    0.047367    0.385039
C      2.447783    1.606505   -0.056427
C      3.872559    1.286025    0.173680
C     -1.862201    1.437463   -0.469304
C     -4.540379    0.930249   -0.021149
C     -2.234891    0.279323    0.174269
C      0.428835    0.549893   -0.858072
C     -1.125065   -0.639030    0.595965
C     -0.237117   -0.770312   -0.622550
N      1.460822    0.646597    0.155590
O     -5.893605    0.648516    0.219345
O      0.765494   -1.702981   -0.476661
H     -3.192073   -2.880568   -0.192511
H     -1.835569   -3.935077    0.223235
H     -0.539344   -3.238397   -1.571382
H     -2.179119   -3.055057   -2.193955
H      6.303233    0.090394    0.472370
H      5.174890   -1.308173    0.870349
H      3.751444   -0.665117   -0.899810
H      5.032058    0.430624   -1.533571
H      5.032760    1.335990    1.990221
H      3.660362    0.082993    2.018880
H     -2.549691    3.262610   -1.398944
H     -4.884296    2.795661   -0.994937
H     -0.745087   -2.462351    1.584319
H     -2.405954   -1.923194    1.788255
H     -0.527393   -1.234492   -2.668838
H     -2.043743   -0.609080   -1.837890
H     -0.492178   -0.517556    2.620059
H     -0.770063    1.080925    1.915095
H      1.537539   -0.816997    1.699466
H      1.471354    0.892590    2.210675
H     -0.108219    2.454285    0.066725
H     -0.409065    2.360588   -1.672368
H     -3.858139   -0.837147    0.877604
H      2.210921    2.485733    0.635681
H      2.368262    2.105559   -1.073087
H      4.493380    2.208506   -0.107194
H      0.881379    0.531068   -1.853441
H     -6.560006    1.328152   -0.095216
H      0.550523   -2.501891    0.017835
