69

C      2.453914   -0.885194   -3.653559
C     -3.296585   -2.950260    0.081919
C     -3.214371    4.959683   -0.423121
C      5.547118   -0.771773    2.853752
C      4.276264   -0.817955    2.304232
C      6.587974   -1.181395    2.049931
C      5.086550   -0.984873   -2.148144
C      4.069788    0.089863   -2.007444
C      4.083135   -1.252806    1.021671
C      6.411972   -1.614898    0.774887
C      4.954619   -2.131939   -1.182481
C     -5.625469    0.519380    1.883071
C     -4.924181   -0.742381    1.499251
C     -3.478919    1.642787    1.995461
C      0.208057   -0.586311   -0.453378
C      0.011402    1.731585   -0.778486
C      2.664105   -0.345212   -2.250108
C     -2.842404   -1.918768    1.084931
C     -2.502193    3.687389   -0.701669
C      5.124044   -1.653523    0.239821
C     -4.865696    1.737937    1.327009
C      0.684449    0.546075   -1.029128
C     -3.585450   -0.591337    0.872522
C     -2.721541    0.510550    1.481969
C     -0.907345   -0.550206    0.350830
C     -1.114233    1.817531    0.023628
C     -1.584557    0.671283    0.598545
N     -1.419491   -1.747484    0.942004
O     -2.572195    3.225809   -1.882274
O     -4.818563    1.566895   -0.038301
O      1.782156    0.627671   -1.844474
O     -1.774413    2.997543    0.268142
Cl     0.686178    0.000000    0.000000
H      3.294032   -0.575913   -4.337579
H      1.543525   -0.420876   -4.112010
H      2.447226   -1.993442   -3.703731
H     -2.611317   -2.911053   -0.814179
H     -4.342078   -2.782737   -0.247429
H     -3.133729   -3.953170    0.530377
H     -3.667067    4.954926    0.591081
H     -4.022387    5.073274   -1.168281
H     -2.511798    5.831113   -0.523441
H      5.702351   -0.426692    3.874534
H      3.431329   -0.498475    2.923464
H      7.610401   -1.153598    2.460387
H      5.083689   -1.345107   -3.205468
H      6.092122   -0.534049   -1.985249
H      4.308660    0.855296   -2.802524
H      4.114694    0.649699   -1.058578
H      3.062190   -1.260719    0.665673
H      7.242079   -1.938641    0.142625
H      3.995183   -2.649259   -1.243650
H      5.784495   -2.834055   -1.374012
H     -6.696209    0.544427    1.592400
H     -5.586346    0.619412    2.986040
H     -4.892557   -1.474538    2.353890
H     -5.595941   -1.248707    0.750942
H     -3.791477    1.416204    3.081065
H     -2.998258    2.614634    2.123815
H      0.737421   -1.518790   -0.645724
H      0.336166    2.686137   -1.208339
H      2.474846   -1.253361   -1.598646
H     -3.044918   -2.226307    2.124803
H     -5.361386    2.627221    1.697138
H     -3.619780   -0.414090   -0.221884
H     -2.266281   -0.015327    2.397274
H     -0.727323   -2.453155    1.241433
H     -5.089499    2.404050   -0.458478
H     -0.686178    0.000000    0.000000
