50

C     -2.982257   -2.022032   -0.150381
C     -2.140313   -2.517384   -1.310390
C      4.597702   -0.327905    1.063516
C      4.350796   -0.893550   -0.338612
C     -1.368793    2.837645   -1.046045
C     -2.299521    3.439314   -0.231402
C     -2.163420   -1.475417    0.961721
C     -1.286875   -1.309799   -1.742171
C     -0.098490   -0.470936    1.750510
C      1.354295   -0.471774    1.305596
C      0.060382    0.969626   -1.712107
C     -2.398931    1.442045    1.067223
C      2.648620    1.075188    0.001221
C      4.030889    0.495776   -0.007370
C     -0.966403    1.530284   -0.781399
C     -2.819037    2.742338    0.830417
C     -1.465393    0.815659    0.264663
C      0.809120   -0.145789   -1.035386
C     -1.047932   -0.548039    0.560408
C     -0.301581   -1.123075   -0.606733
N      1.564671    0.203424    0.080984
O     -3.768453    3.367541    1.655909
O      0.234798   -2.367491   -0.291467
H     -3.703074   -1.277233   -0.536415
H     -3.538142   -2.904403    0.224808
H     -1.491816   -3.348540   -1.019959
H     -2.821392   -2.740329   -2.152109
H      4.024866   -0.772186    1.886536
H      5.679393   -0.187802    1.356758
H      5.287413   -1.130041   -0.900764
H      3.575088   -1.678024   -0.410431
H     -0.970623    3.400674   -1.873908
H     -2.619103    4.456635   -0.427595
H     -2.838397   -1.061777    1.722584
H     -1.653862   -2.339148    1.488236
H     -0.808744   -1.479790   -2.704418
H     -2.046067   -0.470620   -1.751430
H     -0.285721    0.456274    2.322755
H     -0.213268   -1.365664    2.391612
H      1.797427   -1.480123    1.364575
H      1.881825    0.139174    2.100875
H     -0.492675    0.528836   -2.564393
H      0.710400    1.751964   -2.142198
H     -2.852374    0.956938    1.921544
H      2.590333    1.846371   -0.799442
H      2.621867    1.713452    0.946450
H      4.780600    1.245684   -0.438750
H      1.410449   -0.691066   -1.787028
H     -3.404533    3.892859    2.466091
H      0.836255   -2.707765   -0.972691
