45

C     -2.678281    2.978936    0.960431
C      5.564909   -0.765227   -0.119903
C     -2.151107   -2.275560   -1.261074
C     -1.756700   -2.720287    0.119746
C     -1.618639   -0.876773   -1.576007
C      2.111035    1.460402   -1.126522
C      3.267813    0.743228   -0.808018
C     -0.462723   -2.087613    0.589821
C     -0.683749    0.010929    1.953581
C     -1.769982    1.041667    1.965950
C     -0.302728    1.841754   -1.055895
C      1.939234   -0.831053    0.407022
C      0.872186    1.043981   -0.686762
C      3.169819   -0.408488   -0.035685
C     -1.633145   -0.132647   -0.268673
C      0.821989   -0.101922    0.075364
C     -1.575854    1.352437   -0.416273
C     -0.491796   -0.599491    0.578725
N     -1.692020    1.955523    0.874833
O      4.292330   -1.154271    0.306260
H     -2.335531    3.790256    1.665982
H     -3.690484    2.639740    1.199864
H     -2.710803    3.499267   -0.041268
H      5.687006   -0.946242   -1.192435
H      6.320680   -1.323130    0.496557
H      5.689178    0.312087    0.163347
H     -3.276510   -2.184134   -1.264419
H     -1.899053   -3.001066   -2.045089
H     -2.523753   -2.564113    0.882334
H     -1.558943   -3.820581    0.056410
H     -2.212029   -0.403157   -2.355862
H     -0.541827   -1.024073   -1.854931
H      2.256196    2.345489   -1.729402
H      4.244449    1.058977   -1.146445
H      0.332754   -2.456850   -0.122240
H     -0.210638   -2.537991    1.562772
H     -0.977990   -0.820902    2.632334
H      0.255990    0.439013    2.355771
H     -2.762084    0.549305    2.072817
H     -1.640977    1.636875    2.909308
H     -0.427451    1.877541   -2.178056
H     -0.107976    2.893900   -0.753928
H      1.867380   -1.723156    1.004740
H     -2.571343   -0.390470    0.248570
H     -2.428834    1.677888   -1.051912
