49

C     -1.712675   -3.171798    0.701161
C     -2.378825   -2.788208   -0.574631
C     -0.487332   -2.365357    1.047346
C      4.970276    0.746024   -0.197260
C      4.404686   -0.276335    0.704911
C     -0.884565    2.497824    1.753683
C     -1.950906    3.271851    1.373940
C     -2.639389   -1.284314   -0.515044
C     -0.909743   -0.169415   -1.908950
C      0.421289    0.441103   -1.928002
C      0.494261    0.423621    1.572334
C     -2.566475    1.534703   -0.169413
C      2.609898    0.506757   -1.039711
C      3.483833    0.759586    0.128142
C     -0.669914    1.253067    1.169592
C     -2.788893    2.768473    0.401055
C     -0.177123   -1.373915    0.002777
C     -1.498177    0.748101    0.204245
C      0.899303   -0.376627    0.332053
C     -1.344431   -0.553207   -0.481020
N      1.191649    0.517798   -0.726563
O     -3.862983    3.529206    0.005113
H     -2.456081   -3.046007    1.519419
H     -1.516944   -4.269631    0.654079
H     -3.372790   -3.276063   -0.617987
H     -1.810931   -3.079766   -1.479658
H     -0.546036   -2.030010    2.081411
H      0.367327   -3.112253    1.040035
H      5.585670    1.597825    0.145699
H      5.267622    0.402596   -1.226372
H      4.363381   -1.325765    0.370370
H      4.670960   -0.173097    1.799459
H     -0.185138    2.827019    2.512803
H     -2.106240    4.254812    1.844964
H     -3.296495   -0.953386   -1.361545
H     -3.231121   -1.107821    0.408210
H     -1.722159    0.474613   -2.293520
H     -0.954893   -1.122724   -2.475771
H      1.047637   -0.030524   -2.708821
H      0.294606    1.514726   -2.267822
H      1.326442    1.007683    1.953120
H      0.140111   -0.213351    2.398754
H     -3.270852    1.201240   -0.932766
H      2.807740   -0.535136   -1.435296
H      2.849709    1.167650   -1.898975
H      3.219208    1.647187    0.768022
H      0.195608   -1.956890   -0.886404
H      1.797092   -0.955008    0.636698
H     -4.067200    4.453144    0.398583
