42

C     -2.737412    2.497591    0.109671
C     -0.696590   -2.931050   -1.110769
C     -0.253851   -3.132264    0.299060
C     -0.561319   -1.510484   -1.595774
C      2.092928    2.039383   -1.138317
C      3.318698    1.895204   -0.506181
C      0.509902   -2.009964    0.906349
C     -0.619144    0.002807    1.816543
C     -1.917512    0.688926    1.473815
C     -0.248281    1.483930   -1.545247
C      2.333260    0.104326    0.809272
C      1.029233    1.230558   -0.793667
C      3.417083    0.917583    0.468529
C     -1.051674   -0.630876   -0.479789
C      1.119565    0.259295    0.171474
C     -1.400674    0.762437   -0.879161
C      0.015043   -0.640021    0.585410
N     -1.725068    1.499589    0.319289
O      4.638221    0.759386    1.112300
H     -2.470055    3.032083   -0.838613
H     -2.664416    3.244863    0.926140
H     -3.748944    2.086768   -0.029124
H     -1.754057   -3.233870   -1.255607
H     -0.106329   -3.570155   -1.820194
H     -1.156069   -3.339805    0.912861
H      0.354641   -4.060484    0.335124
H     -1.232188   -1.420596   -2.498259
H      0.471737   -1.311997   -1.904666
H      2.022556    2.804704   -1.898632
H      4.165075    2.519415   -0.761947
H      0.546890   -2.125516    2.007881
H      1.561123   -2.077786    0.555712
H     -0.850728   -0.800048    2.565103
H      0.038022    0.715282    2.310580
H     -2.779927    0.000317    1.425269
H     -2.137426    1.382069    2.326498
H     -0.421128    2.578797   -1.488803
H     -0.146201    1.230373   -2.618744
H      2.527688   -0.624660    1.587465
H     -1.983696   -1.106534   -0.090206
H     -2.243446    0.732314   -1.596508
H      4.744471    0.058111    1.825861
