49

C     -2.146662    2.776735    0.920798
C     -2.599939    2.520520   -0.467300
C     -1.377425    1.624310    1.541507
C      5.445001   -0.723824    0.429514
C      4.832447   -1.271158   -0.799461
C     -1.733252   -2.350890    1.497140
C     -3.020369   -2.636240    1.097952
C     -1.765761    1.651130   -1.309970
C      0.041318    0.042380   -1.593638
C      1.391814   -0.260745   -1.107290
C      0.294958   -1.019339    1.378633
C     -3.000612   -0.824331   -0.425100
C      2.974932   -0.203498    0.667372
C      4.219526   -0.066982   -0.179879
C     -1.089967   -1.281140    0.912093
C     -3.670295   -1.884586    0.138265
C     -0.294446    1.275633    0.571376
C     -1.737060   -0.519414   -0.054381
C      0.761167    0.363346    1.102814
C     -0.933961    0.616589   -0.616230
N      1.825726    0.418090    0.084693
O     -4.983215   -2.200011   -0.248950
H     -3.020938    3.075541    1.553082
H     -1.455818    3.663378    0.974828
H     -3.678500    2.185696   -0.415002
H     -2.672130    3.531214   -0.973100
H     -0.999082    1.996437    2.518956
H     -2.090704    0.802042    1.752571
H      5.315837   -1.329901    1.350019
H      6.377859   -0.134617    0.393096
H      5.383669   -1.096468   -1.745150
H      4.326329   -2.258578   -0.740289
H     -1.243338   -2.970000    2.265048
H     -3.571307   -3.481706    1.540093
H     -2.368270    1.186027   -2.120836
H     -1.023642    2.293529   -1.874594
H      0.105571    0.708272   -2.505104
H     -0.398222   -0.911343   -2.014821
H      2.155756    0.014250   -1.896942
H      1.563118   -1.360234   -0.960867
H      0.920597   -1.814125    0.917936
H      0.336905   -1.232597    2.487498
H     -3.485241   -0.219335   -1.177206
H      2.872011   -1.248547    0.956178
H      3.193926    0.369141    1.616703
H      4.334175    0.902396   -0.686529
H      0.196180    2.215806    0.251916
H      1.225245    0.824083    2.013710
H     -5.733912   -1.756933    0.268642
