61

C     -1.523080   -1.059197    1.379802
C     -3.101321   -0.091984   -0.903868
C      3.366489   -0.730873   -1.104826
C      3.421864    0.477658   -0.432580
C      2.166928   -1.406736   -1.093946
C      2.319095    0.992556    0.226782
C      1.047294   -0.889140   -0.427539
C     -1.355515    0.251758    0.694567
C      1.109356    0.312372    0.238709
C     -0.040660    0.903475    0.950451
N     -1.693226    0.237609   -0.722261
O     -0.076811    2.251549    0.514434
C     -1.467711    1.008639    1.043230
C     -3.251119   -0.463180   -0.834762
C      3.723777   -0.054637    0.585224
C      3.364442    0.430211   -0.650144
C      2.749751   -0.625972    1.373845
C      2.052816    0.338604   -1.074820
C      1.437791   -0.707462    0.926461
C     -1.236151    0.803230   -0.406651
C      1.056412   -0.227571   -0.308243
C     -0.330001   -0.313708   -0.795436
N     -2.455529    0.662035   -1.178287
O     -0.938397   -1.551752   -0.509125
O     -0.132167    1.442941    0.180544
O      0.819432   -1.098466   -0.426021
O     -1.513763   -0.272234   -1.131960
O     -1.068649   -0.733959    1.276780
S     -0.533018   -0.182929    0.009260
H     -1.974137   -1.798274    0.686649
H     -2.238861   -0.943465    2.218319
H     -0.599706   -1.458723    1.847393
H     -3.259029   -1.185006   -0.975575
H     -3.620805    0.239662    0.031492
H     -3.562016    0.467768   -1.734802
H      4.227658   -1.135674   -1.620607
H      4.366680    1.033431   -0.427524
H      2.075222   -2.359987   -1.608547
H      2.367264    1.951935    0.759011
H      0.111518   -1.414733   -0.422578
H     -2.129029    0.956145    1.138376
H      0.131559    0.930609    2.047198
H     -1.623576    1.256994   -1.023150
H      0.086844    2.210274   -0.461300
H     -2.549844    1.242958    1.281652
H     -0.926605    1.920937    1.436600
H     -1.200939    0.195112    1.713755
H     -3.001375   -1.281734   -1.555656
H     -4.340755   -0.267647   -1.017438
H     -3.072680   -0.875995    0.164921
H      4.761907    0.007226    0.944367
H      4.143348    0.872339   -1.250307
H      3.049695   -0.999481    2.339270
H      1.822559    0.733645   -2.047786
H      0.745944   -1.170543    1.604116
H     -0.766464    1.757870   -0.798752
H     -0.341423   -0.315810   -1.937637
H     -2.290787    0.757639   -2.195450
H     -0.738661   -1.874954    0.383622
H      0.844638    1.547306    0.001663
H      1.583526   -0.702657    0.089734
