61

C     -2.674537   -1.100373    0.268790
C     -2.384397    1.074659   -1.570791
C      3.436759    0.871909   -0.545910
C      2.948558   -0.363548   -0.936888
C      2.686079    1.606480    0.344502
C      1.755766   -0.874976   -0.472621
C      1.478554    1.091410    0.816303
C     -1.345076   -0.513720   -0.127061
C      0.992645   -0.130609    0.431463
C     -0.290446   -0.679023    0.926990
N     -1.496868    0.891392   -0.433091
O     -0.122933   -2.022901    1.246576
C      2.501824   -1.365030   -0.765837
C      2.248340    1.163380    0.903208
C     -3.319542    0.609706    1.102587
C     -3.007606   -0.662911    0.678587
C     -2.405943    1.609765    0.836261
C     -1.816991   -0.925861    0.008596
C     -1.208863    1.358150    0.165013
C      1.309484   -0.880905   -0.014804
C     -0.915557    0.088480   -0.248549
C      0.356687   -0.189772   -0.963465
N      1.583264   -0.072098    1.112568
O      0.100606   -1.024081   -2.072910
O      1.531403   -0.195373   -0.438260
O     -1.038886   -0.891196    0.365347
O     -0.529349    1.130182   -1.152257
O      0.105434    1.276540    1.184511
S      0.011741    0.356241    0.020843
H     -3.068672   -1.691086   -0.572925
H     -2.510751   -1.846908    1.100675
H     -3.408675   -0.361559    0.638890
H     -2.053988    0.412756   -2.397920
H     -3.422446    0.798116   -1.263538
H     -2.319980    2.133876   -1.919822
H      4.377701    1.229604   -0.937959
H      3.565278   -0.922196   -1.642667
H      3.033739    2.558108    0.662782
H      1.384103   -1.845018   -0.787426
H      0.893064    1.688203    1.523659
H     -0.952129   -0.989153   -1.050705
H     -0.589714   -0.141505    1.847699
H     -0.572315    1.325012   -0.574051
H      0.660682   -2.198951    1.792906
H      3.465242   -0.937369   -0.433927
H      2.427552   -1.098617   -1.859755
H      2.596250   -2.474987   -0.746146
H      3.341546    1.025236    1.033146
H      1.953660    1.841738    1.755980
H      1.970461    1.691392   -0.008008
H     -4.237554    0.841120    1.624520
H     -3.715023   -1.452166    0.881356
H     -2.649725    2.621882    1.169809
H     -1.599230   -1.943088   -0.316846
H     -0.543336    2.190309   -0.007672
H      0.761354   -1.787287    0.354968
H      0.817794    0.723394   -1.346981
H      0.826967   -0.045070    1.826968
H     -0.841660   -0.905307   -2.396308
H      1.834564   -0.920521    0.126454
H     -1.914906   -0.755872   -0.106639
