84

C      3.284995   -2.936323    1.041894
C      4.409984   -1.538160    2.645300
C      4.640777   -2.161125   -1.618574
C      0.094493    4.612494    0.055122
C      1.142297    3.874076    2.130773
C      2.531567    4.539767    0.247190
C     -1.653137   -1.473605    0.135535
C     -2.903632   -0.420713    2.033183
C     -1.763334    1.940514   -2.130478
C     -6.982355   -0.369392   -2.133146
C      1.864513   -0.188675   -1.143874
C     -5.359895   -4.153968    1.045887
C     -6.531440   -4.077885    0.290313
C     -4.448035   -3.104435    0.992360
C     -6.746827   -2.962502   -0.485883
C      4.975097   -0.348845   -0.060516
C     -4.772271   -0.090428   -0.948279
C      3.367112   -1.552795    1.484738
C      5.388140   -1.088348   -1.021880
C     -4.684989   -1.986227    0.201505
C     -4.013385   -0.824649   -0.062800
C     -5.847836   -1.916228   -0.545242
C      3.700655   -0.419926    0.626187
C     -2.260686    0.894662   -0.000121
C      1.179633    2.449453    0.031342
C     -0.922214    1.267106    0.604006
C      2.242466    1.551627    0.507566
C      6.746119   -0.857425   -1.591816
C      1.259230    3.835306    0.647705
C     -2.694779   -0.452345    0.518347
N     -2.141696    0.755921   -1.433193
N     -0.081083    1.895856   -0.023694
N     -5.891401   -0.764809   -1.237758
N      2.597846    0.285940   -0.025194
O     -0.714149    0.854443    1.908758
O      2.901566    2.004827    1.514716
O      7.443421    0.046555   -1.118799
O      7.210779   -1.634442   -2.620042
H      2.861254   -3.577396    1.897793
H      4.313951   -3.393728    0.951573
H      2.646454   -3.208575    0.208525
H      4.580507   -0.510055    2.989599
H      4.128522   -2.233906    3.434301
H      5.375800   -1.913794    2.220960
H      3.586757   -2.198844   -1.664543
H      5.102492   -3.135988   -1.252809
H      4.964557   -2.198081   -2.727238
H      0.195249    5.701796    0.230746
H     -0.890100    4.253175    0.479894
H      0.004620    4.464572   -1.037754
H      0.700480    2.991189    2.579294
H      0.642443    4.827789    2.482128
H      2.170770    3.954176    2.599921
H      3.110002    3.957384   -0.501289
H      2.261945    5.495513   -0.233434
H      3.120517    4.778942    1.145973
H     -1.998653   -2.135688   -0.701557
H     -1.386687   -2.134303    1.011039
H     -0.692038   -1.003093   -0.144939
H     -2.992119    0.635451    2.365179
H     -3.877655   -0.902826    2.325720
H     -2.114956   -0.999953    2.512937
H     -0.709271    1.823615   -2.460004
H     -1.775938    2.792962   -1.417673
H     -2.433933    2.236973   -2.960668
H     -6.905139   -1.015305   -3.018833
H     -7.943499   -0.508688   -1.605475
H     -6.820034    0.708880   -2.427750
H      0.973670    0.402712   -1.389353
H      1.506063   -1.250771   -1.014528
H      2.490949   -0.119903   -2.089343
H     -5.196724   -5.016120    1.645640
H     -7.234398   -4.903071    0.341555
H     -3.544549   -3.180212    1.583976
H     -7.674194   -2.916868   -1.076226
H      5.738781    0.441572    0.249091
H     -4.507306    0.878753   -1.348488
H      2.410414   -1.331104    2.064141
H      3.902981    0.401060    1.473799
H     -3.010435    1.658239    0.249647
H      1.565247    2.687636   -1.059729
H     -1.569372   -0.041540   -1.722270
H      0.236645    0.660247    2.264886
H      8.118389   -1.408124   -3.045199
