55

C     -0.692424    1.635972   -0.852450
C     -3.223955   -1.885846    1.014934
C      1.801465    0.633033   -1.415552
C     -0.936897    0.295299    1.726851
C     -2.359621   -0.296733   -2.194956
C     -0.927540   -0.587421   -1.932383
C      3.204361    0.076447   -1.266263
C      0.507907   -0.117960    2.037040
C      3.313308    1.473494    0.686990
C      2.048534    1.495015    1.091603
C      2.688306   -0.725304    1.060734
C     -3.521442    0.507088    0.980465
C      5.045378   -0.283062    0.371107
C     -1.325746   -0.434430    0.458071
C      0.912802   -0.123592   -0.444395
C     -3.293086   -0.704443   -1.103077
C     -0.555913    0.164594   -0.657499
C     -2.773406   -0.609330    0.277311
C      3.624416    0.109006    0.183245
C      1.428126    0.150378    0.921207
O     -4.921948    0.303783    0.867652
O      5.224603   -1.579324   -0.105734
O     -4.457017    0.085411   -1.282652
H     -1.680248    2.014517   -1.094366
H     -0.050191    1.884601   -1.750810
H     -0.266429    2.223782   -0.034597
H     -3.067602   -2.746303    0.319227
H     -2.549196   -2.061983    1.876815
H     -4.272329   -1.809431    1.339790
H      1.850161    1.683545   -1.020404
H      1.484962    0.568706   -2.452739
H     -1.504039   -0.057029    2.614390
H     -1.014957    1.380670    1.660959
H     -2.451771    0.771112   -2.483227
H     -2.618392   -0.843619   -3.155679
H     -0.336832   -0.271505   -2.800246
H     -0.826617   -1.666358   -1.701345
H      3.878178    0.753446   -1.812141
H      3.311081   -0.936514   -1.665301
H      0.451324   -1.223385    2.216489
H      0.860820    0.416959    2.947121
H      4.034619    2.280325    0.699832
H      1.567689    2.381496    1.486204
H      2.536647   -1.710809    0.622140
H      3.081283   -0.708476    2.078308
H     -3.302914    1.489702    0.568401
H     -3.367684    0.458022    2.092041
H      5.231047   -0.352761    1.483405
H      5.739325    0.435764   -0.091517
H     -0.879228   -1.471822    0.594380
H      1.055588   -1.211866   -0.721386
H     -3.638496   -1.741491   -1.349253
H     -5.308537    0.996755    1.486285
H      5.432775   -1.565783   -1.079121
H     -4.190249    1.057660   -1.323517
