38

C     -3.649572   -0.774951    0.245778
C     -3.691434    0.701652    0.130129
C      4.224407    0.826847    1.253166
C     -2.345650   -1.425591    0.048256
C      3.119185    1.391294    0.608310
C      4.256115   -0.540672    1.406620
C     -2.433720    1.328999   -0.413981
C      0.443276    0.215154   -1.553913
C     -0.179463    1.577327    0.416413
C      1.125591   -1.641655   -0.150289
C      0.931214    1.220746   -0.539538
C     -0.065339   -0.973845   -0.779499
C     -1.126315   -0.592683    0.235293
C      2.090721    0.614622    0.138259
C      3.205644   -1.302851    0.923399
N     -1.335742    0.804066    0.273268
N      2.137834   -0.715948    0.296220
O      3.269430   -2.547208    1.081631
H     -4.077169   -1.037823    1.260149
H     -4.425323   -1.185060   -0.469201
H     -3.879877    1.203848    1.123603
H     -4.537248    1.065821   -0.515612
H      5.050943    1.400807    1.635940
H     -2.315034   -1.836033   -1.005546
H     -2.302705   -2.351399    0.684050
H      3.126930    2.462355    0.505479
H      5.106465   -1.017292    1.907003
H     -2.446247    1.184370   -1.509125
H     -2.507594    2.414724   -0.236354
H     -0.249317    0.610999   -2.286859
H      1.350408   -0.136664   -2.106687
H     -0.419289    2.664038    0.387170
H      0.239600    1.411712    1.452994
H      0.788946   -2.317863    0.665663
H      1.565535   -2.321939   -0.935109
H      1.190412    2.139700   -1.100323
H     -0.542475   -1.651965   -1.547253
H     -0.693142   -0.867638    1.243887
