39

C     -2.990738   -0.937468   -1.855379
C     -5.819400    0.056673    2.180069
C     -4.833267   -0.920306    2.176900
C     -5.762673    1.027107    1.204010
C     -3.822926   -0.925666    1.227255
C     -4.757111    1.011609    0.268506
C      3.767639   -1.030128    0.224563
C      5.058465   -1.194134    0.722848
C      2.071883    0.378780   -0.838196
C      4.321652    1.194050   -0.375768
C      1.054121   -0.676778    1.015981
C     -2.711745    0.090106   -0.788759
C      3.405282    0.172406   -0.325351
C     -3.765506    0.048959    0.246498
C      0.957182   -0.004564   -0.240384
C      5.979044   -0.168373    0.672583
C      5.614773    1.025543    0.124678
C     -0.362448    0.258310   -0.862321
N      1.129053   -1.236321    2.051402
N     -1.394361   -0.134374   -0.238115
O      7.278471   -0.304868    1.163902
O      6.545028    2.061639    0.073897
O     -0.453737    0.910685   -2.082412
H     -2.040695   -1.423415   -2.155554
H     -3.438067   -0.505190   -2.769482
H     -3.659165   -1.728805   -1.437737
H     -6.601575    0.038534    2.936714
H     -4.894526   -1.675981    2.952926
H     -6.543383    1.787856    1.218585
H     -3.056456   -1.697319    1.236420
H     -4.724037    1.780705   -0.493947
H      3.135959   -1.882343    0.300656
H      5.392718   -2.121627    1.165947
H      1.935755    0.898170   -1.811155
H      4.110154    2.165969   -0.792768
H     -2.715922    1.082008   -1.259039
H      7.610530   -1.165484    1.581977
H      6.257544    2.951861   -0.339895
H     -1.277513    0.792173   -2.676786
