18

C     -0.126504    0.132715    1.028795
C     -0.982011   -0.606528   -0.062611
C     -2.430771   -0.550518    0.251658
O     -0.925858    0.173059   -1.270155
O     -3.169691   -1.494322   -0.139116
O     -2.939485    0.489332    0.951475
O      3.465901    1.422644    0.444779
O      2.515499   -1.169905    0.543084
O      2.304373    0.309051   -1.536422
O      0.721359    0.968216    0.332040
P      2.229963    0.389913    0.051208
H     -0.866598    0.759395    1.566193
H      0.290343   -0.570299    1.712561
H     -0.563753   -1.581549   -0.245820
H     -1.728035   -0.049023   -1.810419
H     -3.902911    0.778245    0.803436
H      3.176041    2.340476    0.239100
H      2.932139   -1.740903   -0.163143
