36

C      5.609784   -0.024799    0.849930
C     -5.362510    0.505988    0.108943
C      5.410572   -0.071531   -0.646955
C     -4.883342   -0.750196    0.775956
C      4.086433    0.619070   -0.992261
C     -3.869239   -0.419398    1.857977
C     -0.849456    0.489528   -1.626951
C      0.588951   -0.358331    0.166383
C     -0.690719    0.339894   -0.133808
C      2.971040   -0.096610   -0.347512
C     -2.704842    0.302229    1.265442
O     -0.952065   -0.750090   -2.211015
O      3.188742   -1.127711    0.316218
O     -2.564299    1.537012    1.549793
O      1.674498    0.343846   -0.456892
O     -1.800324   -0.336107    0.431117
H      4.676307    0.327899    1.325575
H      6.436727    0.690617    1.078631
H      5.842680   -1.020172    1.225713
H     -5.127250    0.419598   -0.965922
H     -4.851121    1.400934    0.507970
H     -6.439132    0.652320    0.316410
H      5.342171   -1.164270   -0.935129
H      6.256603    0.384600   -1.161697
H     -5.746405   -1.295010    1.178558
H     -4.382658   -1.428882    0.038742
H      4.112346    1.656986   -0.640069
H      3.960302    0.635876   -2.098708
H     -3.487563   -1.335736    2.345627
H     -4.336616    0.202618    2.650022
H     -1.776873    1.060772   -1.879537
H      0.008169    1.059803   -2.004974
H      0.551251   -1.412318   -0.218304
H      0.807657   -0.390374    1.256252
H     -0.687744    1.381208    0.272718
H     -1.012075   -0.650173   -3.198245
