65

C     -3.308276   -2.392627    2.005247
C     -3.795157    2.231986    0.207583
C     -8.731261    0.877034    0.074273
C      3.064079    2.048640   -3.155359
C     -7.746916    0.534074   -0.789319
C      4.196379    1.997956   -2.171830
C     -8.476942    0.881600    1.438492
C      2.409590    0.665163   -2.981847
C      6.595545   -1.129344    1.860925
C      7.787990   -0.739945   -0.138658
C      7.462351   -2.111000    2.250795
C      8.693916   -1.756092    0.248309
C     -1.467727   -1.226951    0.863142
C     -1.668235    0.955722    0.025126
C     -2.771460   -1.201055    1.306138
C     -2.983057    1.015159    0.453975
C      6.732803   -0.437987    0.688483
C     -0.888925   -0.158659    0.215264
C      8.546153   -2.442745    1.426894
C     -6.448729    0.175969   -0.356296
C      3.634148    1.199557   -1.009899
C     -7.236751    0.542691    1.863583
C      2.458569    0.500161   -1.466334
C     -3.567871   -0.064435    1.105057
C     -6.196790    0.187382    0.985179
C     -4.903716   -0.080783    1.588761
C      5.776661    0.615033    0.273907
C     -5.551640   -0.353554   -1.384113
C      0.445513   -0.291895   -0.310660
N      4.669800    0.283892   -0.520362
O      9.412015   -3.445120    1.845092
O     -6.995347    0.551343    3.248761
O     -4.973497   -0.393465    2.850193
O      5.960141    1.794097    0.631568
O     -5.862705   -0.107902   -2.615091
O     -4.452348   -1.081449   -1.162273
O      1.027170   -1.418950   -0.239784
O      1.189392    0.722551   -0.919386
H     -2.934495   -3.346295    1.570932
H     -4.429746   -2.442828    1.928020
H     -3.008193   -2.401316    3.096926
H     -3.103826    3.127539    0.223317
H     -4.241701    2.247879   -0.785867
H     -4.496768    2.363476    1.051555
H     -9.746053    1.164008   -0.228492
H      2.363270    2.843825   -2.799377
H      3.368692    2.185243   -4.202666
H     -7.952987    0.533599   -1.854018
H      4.525290    3.014469   -1.880613
H      5.036868    1.454295   -2.673874
H     -9.286739    1.168430    2.138637
H      2.929228   -0.116041   -3.525217
H      1.363909    0.783523   -3.330109
H      5.759289   -0.883565    2.510898
H      7.936375   -0.236787   -1.065574
H      7.367069   -2.673177    3.180213
H      9.516957   -2.002609   -0.397148
H     -0.851874   -2.129160    1.024844
H     -1.269772    1.849919   -0.471711
H      3.477316    1.956638   -0.229914
H      2.631404   -0.635843   -1.344564
H      4.561054   -0.739523   -0.781932
H     10.197112   -3.103639    2.404525
H     -7.727717    0.820570    3.866797
H     -4.018827   -1.748683   -1.808176
