60

C     -2.887460    2.046781   -1.412806
C      6.341421    3.739434    0.189819
C      8.222013   -0.380986    1.133586
C      5.813290   -2.858098    1.612153
C     -9.761896    1.273047   -1.759561
C      2.057611    0.770241    0.359214
C      4.382802    1.799073    0.528736
C     -5.534895    0.209571   -0.874089
C     -2.394439   -2.367239   -0.260433
C     -0.992507    0.999453   -0.226941
C     -2.479614    1.221156   -0.188023
C      3.412318    0.847247    0.692556
C     -4.371360   -0.497257   -0.640581
C      1.603008   -0.453032    0.785771
C     -6.556469   -0.679816   -1.116550
C     -2.077829   -1.027972   -0.158846
C     -3.699585   -2.749381   -0.551524
C      5.668529    1.563489    0.983661
C     -3.063854   -0.113325   -0.348911
C      3.723348   -0.329626    1.305405
C     -4.709024   -1.827972   -0.746461
C      5.979043    0.363193    1.606895
C      5.020156   -0.584436    1.771960
C      0.301346   -1.072858    0.678363
C     -7.958947   -0.367944   -1.411412
N      2.655983   -1.101287    1.362288
N     -6.006092   -1.892887   -1.027900
N     -0.816196   -0.381694    0.124416
O     -4.019293   -4.088615   -0.653651
O      0.145896   -2.277100    1.090864
O     -8.769077   -1.306767   -1.609693
O      6.648857    2.522472    0.819390
O      7.301595    0.196247    2.041022
O      5.351136   -1.774765    2.396259
O     -8.419290    0.921942   -1.478491
H     -1.986880    2.609915   -1.732418
H     -3.732208    2.725596   -1.168411
H     -3.156814    1.370255   -2.249520
H      5.557087    4.300270    0.744681
H      7.211478    4.384276    0.056230
H      5.915494    3.511625   -0.813530
H      8.775215   -1.214592    1.573302
H      7.722933   -0.737997    0.206516
H      8.964488    0.404706    0.828579
H      4.992791   -3.599598    1.469391
H      6.651389   -3.325614    2.181640
H      6.134994   -2.494594    0.628217
H    -10.486006    0.642781   -1.200519
H     -9.894137    2.313264   -1.348814
H     -9.973850    1.316692   -2.845207
H      1.511306    1.542990   -0.150102
H      4.101237    2.721016    0.038376
H     -5.630856    1.289458   -0.868023
H     -1.624367   -3.116463   -0.115441
H     -0.594873    1.672288    0.590667
H     -0.563277    1.261821   -1.218605
H     -2.827365    1.720629    0.743544
H      2.636000   -2.065286    1.790095
H     -6.520594   -2.804162   -1.161423
H     -3.293709   -4.769564   -0.513989
