26

C     -2.366690    1.212381   -0.887970
C     -1.438459   -2.119812    0.704180
C     -2.296030   -0.249567   -0.581330
C      0.620232    0.625182    1.309701
C      0.707796   -0.521829   -0.745416
C      1.931597    1.034437    1.127444
C      2.033953   -0.117298   -0.945973
C     -1.370681   -0.592726    0.548670
C      0.003896   -0.155495    0.371875
C      2.637622    0.666758    0.006371
N      3.988819    1.078718   -0.198350
H     -3.280740    1.386739   -1.500543
H     -1.517947    1.578337   -1.496328
H     -2.504566    1.786765    0.052691
H     -0.677760   -2.475022    1.418913
H     -1.362554   -2.609711   -0.291429
H     -2.435031   -2.395753    1.110509
H     -2.028467   -0.830263   -1.487864
H     -3.318512   -0.575396   -0.278021
H      0.119651    0.956300    2.227081
H      0.302109   -1.140670   -1.545358
H      2.423187    1.655754    1.873126
H      2.593824   -0.403700   -1.825979
H     -1.763022   -0.194894    1.508603
H      4.295384    1.753910   -0.903501
H      4.702391    0.646855    0.428898
