25

C      2.045985    0.827501   -0.416500
C      2.706969   -0.699259    1.418607
C     -3.150002    0.853380   -1.120274
C     -2.981988   -0.501772   -0.951524
C     -2.100599    1.680957   -0.740544
C     -1.824966   -1.010221   -0.429966
C     -0.931989    1.150370   -0.212317
C      1.568831    0.137386    0.821055
C     -0.754275   -0.200277   -0.040282
C      0.457283   -0.802369    0.527761
O      0.166785   -1.655488    1.591349
H      2.160758    1.907468   -0.286651
H      1.320089    0.592602   -1.246987
H      3.043302    0.398489   -0.684583
H      3.631466   -0.092188    1.506729
H      2.841261   -1.555522    0.739037
H      2.368106   -1.003544    2.426809
H     -4.069086    1.259943   -1.534944
H     -3.823286   -1.126793   -1.258544
H     -2.223360    2.737025   -0.868617
H     -1.739681   -2.071530   -0.317195
H     -0.179068    1.871825    0.061170
H      1.323301    0.881365    1.607261
H      0.850819   -1.489851   -0.299755
H     -0.706655   -2.089497    1.442274
