25

C     -2.949401   -0.862396    0.131729
C     -1.883568    1.223065   -0.712909
C      3.404536    0.729920    0.077745
C      2.364353    1.585351    0.319361
C      3.143913   -0.590937   -0.186634
C      1.059628    1.125216    0.297939
C      1.852337   -1.039556   -0.206612
C     -1.726590    0.065405    0.249718
C      0.770307   -0.183567    0.037312
C     -0.549564   -0.795547   -0.029328
O     -0.647065   -1.937455    0.795248
H     -2.668485   -1.882870    0.468609
H     -3.782208   -0.507178    0.759302
H     -3.199095   -0.922647   -0.936965
H     -2.017026    2.152696   -0.132626
H     -1.047284    1.263584   -1.404505
H     -2.823356    1.111398   -1.305471
H      4.417859    1.132437    0.103929
H      2.523139    2.641009    0.533548
H      3.985014   -1.247490   -0.374366
H      0.229008    1.806020    0.500780
H      1.692387   -2.094421   -0.420546
H     -1.694746    0.448082    1.264930
H     -0.666216   -1.156296   -1.097443
H      0.212127   -2.063822    1.267256
