25

C     -3.041212   -0.499858   -0.202108
C      0.019428    1.686411   -0.075984
C     -0.976563    0.747333   -0.671790
C      1.453443    1.253640   -0.282813
C      1.550041   -1.256778   -0.230836
C     -1.653424   -0.143133    0.325169
C      1.829744    0.038390    0.490684
C      0.305431   -1.823951    0.351419
O      3.210793    0.091496    0.733232
O      0.413949   -3.007490    0.763758
O     -0.983657   -1.352695    0.556842
H     -2.938582   -0.668973   -1.289762
H     -3.785626    0.265082    0.064458
H     -3.365160   -1.489014    0.223191
H     -0.062622    2.701797   -0.561861
H     -0.153989    1.885940    1.008453
H     -0.532459    0.185941   -1.525435
H     -1.790169    1.374193   -1.142004
H      2.085446    2.103071    0.107580
H      1.674854    1.147531   -1.351187
H      1.475340   -1.116899   -1.334022
H      2.387588   -1.973157   -0.078943
H     -1.825609    0.450166    1.249286
H      1.319206    0.047675    1.478750
H      3.383810   -0.646717    1.393924
