20

C     -2.684509   -1.198066    0.205533
C     -1.463298   -1.689187    0.065202
C      1.981782    1.934170    0.750541
C      0.680429    2.181478    0.426363
C      2.492863    0.664720    0.535412
C     -0.137877    1.191885   -0.111977
C      1.669548   -0.320602   -0.003200
C      0.360423   -0.071363   -0.329184
C     -0.510467   -1.116285   -0.899712
O     -1.209551   -0.533499   -1.975849
H     -3.009394   -0.354884   -0.394636
H     -3.378414   -1.607457    0.901232
H     -1.175468   -2.528104    0.679145
H      2.656799    2.683773    1.175139
H      0.275609    3.181857    0.595263
H      3.520639    0.429364    0.779748
H     -1.147168    1.478328   -0.335755
H      2.064179   -1.306342   -0.170926
H      0.164421   -1.912168   -1.324097
H     -1.150545   -1.107618   -2.784292
