25

C      3.132826    0.425383   -0.716670
C     -3.352544    0.633811   -1.138010
C     -3.100433   -0.613453   -0.622484
C     -2.609171    1.696241   -0.692315
C     -2.102288   -0.798732    0.341291
C     -1.613386    1.508409    0.269784
C     -0.306759    0.071736    1.797743
C      2.930866   -0.911020   -0.005264
C     -1.352393    0.261290    0.793406
C      1.500969   -0.934999    0.432702
O      3.207613   -1.932428   -0.893057
O      0.694919   -1.804208    0.010031
O      0.997321   -0.003054    1.322797
H      4.100480    0.482281   -1.233420
H      2.275875    0.626741   -1.397297
H      3.106007    1.219650    0.054221
H     -4.133195    0.792414   -1.894907
H     -3.680100   -1.446959   -0.968874
H     -2.808228    2.675902   -1.098113
H     -1.948931   -1.799241    0.713051
H     -1.053750    2.368445    0.591668
H     -0.475223   -0.861858    2.414648
H     -0.311880    0.889300    2.578539
H      3.628770   -0.942358    0.834901
H      3.272636   -1.603292   -1.839612
