25

C      4.144593    0.147238   -0.597864
C     -4.170622    0.521165   -0.448551
C     -3.354951    0.058837   -1.462841
C     -3.683719    0.451273    0.855235
C     -2.100156   -0.455177   -1.196186
C     -2.426997   -0.063975    1.118206
C     -0.257271   -1.086246    0.342447
C      3.166400    0.604919    0.463814
C     -1.613315   -0.525796    0.100616
C      2.053447   -0.370693    0.491419
O      2.729243    1.896266    0.211105
O      2.336273   -1.573881    0.712894
O      0.719398   -0.057051    0.290982
H      4.539305    0.982968   -1.206620
H      5.014899   -0.313731   -0.069715
H      3.703792   -0.638640   -1.247828
H     -5.143374    0.918733   -0.663494
H     -3.713837    0.102219   -2.499122
H     -4.335869    0.818196    1.641006
H     -1.451362   -0.820530   -1.980947
H     -2.073665   -0.107030    2.135334
H     -0.037773   -1.907430   -0.369171
H     -0.276959   -1.557204    1.351130
H      3.635171    0.579847    1.474744
H      2.597348    2.395726    1.046470
