38

C      1.005093   -3.072417   -0.705060
C      3.888918    2.408949    0.546300
C     -2.760828    2.195898    0.723518
C     -2.160745    1.049649   -1.335576
C     -2.164763   -1.500373    0.104376
C     -0.829289   -2.032695    0.506247
C     -2.538284   -0.221705    0.794583
C      1.534393    1.608583    0.479383
C      2.303279   -0.833331   -0.441204
C      0.221997   -1.817755   -0.593393
C      2.857976    1.375617    0.278898
C      0.976053   -0.621245   -0.247523
C      3.237688    0.129265   -0.189869
C      0.583737    0.628871    0.223484
C     -1.980903    1.007205    0.141846
Cl     4.930241   -0.186967   -0.452746
O     -0.638798    1.206047    0.534444
H      1.664949   -3.304411    0.139823
H      1.497966   -3.209908   -1.712295
H      0.247609   -3.916262   -0.698899
H      4.887432    2.049239    0.230770
H      3.629662    3.298089   -0.059870
H      3.895696    2.618903    1.632459
H     -2.194525    2.712118    1.508344
H     -2.979846    2.948597   -0.077854
H     -3.721084    1.856459    1.169795
H     -1.214866    0.699972   -1.843641
H     -2.319182    2.086277   -1.703958
H     -3.003521    0.447029   -1.713092
H     -2.937908   -2.252254    0.369109
H     -2.181533   -1.420979   -1.000413
H     -0.897324   -3.112227    0.778007
H     -0.487176   -1.510161    1.437623
H     -2.177663   -0.273487    1.834068
H     -3.642633   -0.151307    0.822974
H      1.204708    2.586337    0.849955
H      2.622471   -1.788719   -0.804353
H     -0.358996   -1.686902   -1.526261
