22

C      2.148048    1.055035    0.199865
C     -2.857953    0.614164   -0.763709
C     -2.362817   -0.577416   -1.225051
C     -2.218476    1.329596    0.229943
C     -1.192937   -1.040436   -0.656497
C     -1.046822    0.855552    0.792078
C      0.713781   -0.877750    0.916994
C      1.952564   -0.431068    0.197565
C     -0.530545   -0.331248    0.350283
O      3.040891   -1.051966    0.822609
H      3.249590    1.287497    0.119225
H      1.768998    1.559908    1.099420
H      1.684515    1.490096   -0.694678
H     -3.778325    0.973110   -1.214766
H     -2.846327   -1.165705   -2.009769
H     -2.616242    2.273028    0.590798
H     -0.785338   -1.966077   -0.997310
H     -0.582016    1.453720    1.569452
H      0.677948   -1.984074    0.857291
H      0.813083   -0.644444    2.011775
H      1.913611   -0.816780   -0.845601
H      2.854769   -2.004741    1.017756
