25

C     -1.748714   -1.391427    0.247070
C     -0.440219   -1.929147   -0.362483
C      0.810387    1.218058    0.307230
C      1.651859   -0.744197   -0.723155
C      2.144271    0.519634   -0.035621
C     -1.436736    0.057611    0.624424
C      0.009777    0.030946    0.564070
C     -2.127674    0.992835   -0.256858
N      0.235386   -0.727228   -0.686101
O      2.921875    1.301048   -0.862913
O     -2.857054    0.534081   -1.171148
O     -2.039934    2.368584   -0.161494
H     -1.936610   -1.986374    1.177089
H     -2.554937   -1.475092   -0.475943
H      0.135991   -2.507257    0.373878
H     -0.669273   -2.583935   -1.227741
H      0.947418    1.919042    1.148699
H      0.568030    1.787320   -0.606636
H      1.964604   -0.646020   -1.803212
H      2.107293   -1.655372   -0.281829
H      2.653812    0.230679    0.898126
H     -1.840355    0.212633    1.659579
H      0.434661   -0.555240    1.388420
H      3.298295    2.024888   -0.312733
H     -2.232154    3.003930   -0.928261
