24

C      3.448788   -0.228742    0.367798
C     -3.414743    0.935881   -0.727268
C     -3.095646   -0.381569   -0.988999
C     -2.466081    1.751229   -0.137247
C     -1.862661   -0.896871   -0.677649
C     -1.207210    1.260241    0.191121
C      1.358778   -0.272837   -0.855279
C     -0.920734   -0.065040   -0.085491
C      0.408927   -0.649899    0.240430
N      2.679754   -0.781081   -0.710383
O      0.801323   -0.206008    1.498033
H      4.505110   -0.598854    0.210873
H      3.123812   -0.631084    1.336402
H      3.463040    0.886638    0.331985
H     -4.409337    1.301145   -0.990320
H     -3.842483   -1.038669   -1.460073
H     -2.692718    2.774684    0.075821
H     -1.590407   -1.933756   -0.877244
H     -0.452577    1.876111    0.653918
H      1.319774    0.832290   -0.958913
H      0.932720   -0.687348   -1.797243
H      0.311450   -1.772319    0.273731
H      3.200747   -0.660075   -1.593050
H      0.400375   -0.814066    2.178355
