64

C      8.400538   -0.730516   -0.338944
C     -0.304578   -2.029768   -3.314752
C     -0.680380    1.587280    2.864322
C      4.214232    1.852402    0.557938
C      5.107960    2.763566    0.013391
C      5.824024    0.152101    0.384103
C     -1.769589   -0.852333   -1.259414
C     -1.843420    0.330632    0.760551
C     -8.766232    0.297998    0.912526
C     -6.636543    0.854564    1.796458
C     -4.701931   -0.912452   -1.272009
C      3.413665   -1.591296   -0.773169
C      4.551129    0.530585    0.754838
C     -2.520952   -0.288696   -0.275228
C     -8.004560    0.883514    1.887001
C      6.377089    2.376713   -0.353969
C     -8.148909   -0.329396   -0.174800
C     -6.105222   -0.942194   -1.280315
C     -3.982232   -0.313679   -0.273685
C      6.727234    1.059819   -0.163075
C     -5.975819    0.244735    0.737726
C     -0.375529   -0.809970   -1.229217
C     -0.460184    0.374941    0.794290
C      2.598536   -0.987508    0.382059
C     -6.764925   -0.339812   -0.234233
C      3.585893   -0.419292    1.343073
C      0.306075   -0.196635   -0.203235
O      4.033752   -0.635774   -1.530488
O     -8.588213    1.521271    2.991019
O      7.295716    3.267303   -0.902601
O     -8.959457   -0.890041   -1.105418
O     -6.719849   -1.502127   -2.215624
O      2.971142    0.120482    2.486006
O      7.974209    0.587167   -0.501788
O      0.371173   -1.388819   -2.240557
O      0.132521    1.015464    1.866554
O     -4.650205    0.241283    0.691878
O      1.654226   -0.141646   -0.150136
H      9.306728   -0.986773   -0.887065
H      8.503288   -1.042040    0.729582
H      7.589079   -1.387468   -0.767737
H     -1.019443   -2.801895   -2.936650
H      0.405547   -2.575683   -3.965291
H     -0.911413   -1.295277   -3.881850
H     -1.444084    2.274856    2.482296
H     -1.144798    0.794723    3.514242
H      0.018393    2.169393    3.531859
H      3.218323    2.162392    0.844657
H      4.832873    3.795439   -0.135976
H      6.104882   -0.875406    0.530513
H     -2.210735   -1.350829   -2.096555
H     -2.454251    0.775515    1.537795
H     -9.838125    0.326660    0.993557
H     -6.055643    1.323877    2.578449
H     -4.213662   -1.391129   -2.102267
H      4.233563   -2.236850   -0.350186
H      2.765157   -2.299551   -1.318839
H      2.078966   -1.834911    0.928676
H      4.158145   -1.308624    1.751813
H      3.656013   -0.508214   -2.427484
H     -8.802468    2.518916    2.913370
H      8.207978    2.939573   -1.154673
H     -8.865292   -1.374795   -1.933976
H      2.300590   -0.571762    2.765068
