29

C     -4.622409    0.017797    0.194523
C     -2.331550   -0.090047    1.003836
C      2.120881    1.652714   -0.222821
C     -0.052450    0.767259    0.380842
C      3.969159    0.191161   -0.424106
C     -3.177410   -0.205615   -0.241923
C      1.281879    0.613597    0.108491
C      3.444719    1.462192   -0.487673
C     -0.886223   -0.289526    0.713487
C      3.139921   -0.856596   -0.093728
C      1.806726   -0.654893    0.171610
C      0.944086   -1.676780    0.505696
O     -3.101177   -1.460403   -0.818057
O      4.256191    2.542394   -0.818706
O      3.674469   -2.147508   -0.029584
O      1.435356   -2.842656    0.561747
O     -0.329271   -1.478856    0.758376
H     -5.327363   -0.013892   -0.640951
H     -4.653927    1.056510    0.635209
H     -4.904076   -0.656072    1.019406
H     -2.534806    0.917140    1.431280
H     -2.707531   -0.824341    1.751505
H      1.694385    2.662619   -0.271178
H     -0.499745    1.737699    0.342642
H      5.021816    0.071749   -0.639220
H     -2.908744    0.545034   -0.988894
H     -3.297554   -2.193422   -0.185828
H      3.898879    3.467893   -0.870407
H      4.645769   -2.315152   -0.219978
