79

C      6.257573   -1.008183    0.364625
C      5.255931    0.677917    1.985767
C      4.073934   -1.196944   -2.937733
C      3.427463   -3.582862   -3.554755
C     -3.944513    3.471416    2.685332
C     -3.532666    3.778659    0.181826
C     -0.122781   -0.355054    2.200344
C      1.142805    1.781923    1.919163
C     -6.693653   -0.808793    1.225648
C     -6.077982   -2.037915    1.140569
C     -6.133878    0.252542    0.561022
C     -4.927184   -2.214547    0.411084
C     -4.985057    0.049235   -0.160693
C      3.888303   -1.036513    0.851750
C      2.640949   -0.544891    1.528915
C      1.732079   -1.827232   -3.121406
C     -1.874562    2.676317    1.558984
C      1.351791   -0.445767   -2.769310
C     -1.050258    2.493525    0.376728
C      1.187518   -1.134539   -0.425334
C      5.063415   -0.469314    1.070364
C      3.022267   -2.198674   -3.204252
C     -3.084146    3.276172    1.494309
C     -4.323689   -1.150235   -0.283463
C      1.622931   -0.088786    0.517787
C     -2.004628   -0.785607   -0.918872
C     -3.155709   -1.407269   -1.081287
C     -0.857963   -1.121867   -1.804512
C     -1.759348    0.189670    0.126573
C      0.088414    0.936549   -1.155202
C      0.459136    0.641061    1.210384
C      0.437138   -0.448297   -1.575574
C     -0.539455    1.074037    0.189940
O     -3.267380   -2.378833   -2.084026
O     -1.029372   -1.956759   -2.706629
O     -2.623193    0.289973    1.029033
O      0.297202    1.865369   -1.846583
H      7.156810   -0.801045    0.978619
H      6.113137   -2.098990    0.214616
H      6.390680   -0.507126   -0.636531
H      6.332244    0.869633    2.143352
H      4.856034    1.580119    1.459830
H      4.803601    0.550360    2.978339
H      3.964676   -0.406897   -3.735152
H      5.090333   -1.662427   -3.047636
H      4.008345   -0.690078   -1.975048
H      4.339101   -3.626248   -4.174160
H      2.634233   -4.110273   -4.145082
H      3.597155   -4.211235   -2.650706
H     -4.692038    2.648638    2.804032
H     -4.506264    4.400558    2.575583
H     -3.357447    3.510793    3.637310
H     -4.536213    4.277473    0.340954
H     -3.637872    3.016191   -0.600980
H     -2.840930    4.590661   -0.187157
H     -1.004017    0.086953    2.678939
H     -0.481962   -1.269540    1.685246
H      0.627213   -0.642412    2.970146
H      2.110550    1.985018    1.376226
H      0.571572    2.685030    2.069188
H      1.445526    1.397305    2.924421
H     -7.602698   -0.657084    1.799115
H     -6.552948   -2.863931    1.683200
H     -6.615216    1.231763    0.619960
H     -4.454768   -3.180709    0.351368
H     -4.584770    0.898540   -0.686744
H      3.854360   -1.879896    0.159809
H      2.269118   -1.437923    2.105933
H      2.938855    0.208941    2.250480
H      1.025542   -2.608759   -3.331925
H     -1.627648    2.359932    2.588486
H      2.271197    0.116342   -2.521412
H      0.906238    0.102100   -3.633238
H     -0.231140    3.250790    0.351099
H     -1.702146    2.666831   -0.536247
H      2.077696   -1.667967   -0.809082
H      0.547229   -1.923698    0.027098
H      2.128380    0.719225   -0.084674
H     -3.593180   -2.162442   -3.018089
