79

C     -3.107634   -4.607959   -0.748459
C     -0.967877   -5.851712   -1.457376
C     -1.343416    3.762715    3.679866
C     -0.445729    5.508036    2.064816
C      3.656765    1.012340    4.081369
C      3.496499    2.573318    2.079618
C     -0.079260   -0.988153    2.488916
C      0.892656   -2.483826    0.882006
C      1.904893   -1.037146   -5.866529
C      1.805151    0.342104   -5.863383
C      1.233820   -1.832466   -4.963741
C      0.994542    0.895439   -4.904685
C      0.436710   -1.228026   -4.026955
C     -1.030230   -3.407678   -1.061729
C     -1.701302   -2.178360   -0.708839
C     -1.548358    3.514662    1.212807
C      2.621743    0.229989    2.044164
C     -2.246954    2.214366    1.274600
C      2.124700    0.238114    0.688446
C     -2.204619   -0.184223    0.571140
C     -1.660541   -4.576217   -1.091897
C     -1.146531    4.202594    2.273529
C      3.220813    1.244390    2.666997
C      0.312064    0.131001   -3.989808
C     -1.340619   -1.411438    0.488602
C     -0.491143    0.824109   -1.761789
C     -0.558752    0.834041   -3.071446
C     -1.434645    1.569431   -0.942953
C      0.570424    0.101771   -1.097086
C     -0.107902    1.119952    0.926097
C      0.056784   -1.241699    0.959625
C     -1.514128    1.141339    0.512390
C      0.688610   -0.016031    0.409472
O     -1.577581    1.603890   -3.626895
O     -2.124817    2.492456   -1.412556
O      1.485170   -0.484742   -1.728522
O      0.351428    1.954729    1.621983
H     -3.465143   -5.671525   -0.786853
H     -3.330678   -4.251481    0.274074
H     -3.697079   -4.027069   -1.470129
H     -0.752806   -6.374148   -0.512487
H     -1.713390   -6.446874   -2.035873
H     -0.088609   -5.690525   -2.080694
H     -2.324621    3.268400    3.842700
H     -1.336365    4.649415    4.336107
H     -0.487340    3.130715    3.958067
H     -0.720987    6.221298    2.857707
H     -0.722425    5.953949    1.094610
H      0.660035    5.345472    2.145580
H      3.935466    1.953301    4.583420
H      2.771795    0.570517    4.606209
H      4.445817    0.261329    4.063133
H      2.652697    3.246723    2.357999
H      4.380603    3.002832    2.607196
H      3.618243    2.593944    0.995531
H      0.433277   -1.741453    3.085192
H      0.250125   -0.006225    2.788490
H     -1.155465   -1.064450    2.808082
H      1.518284   -2.603089    1.826279
H      1.614528   -2.528349    0.076881
H      0.220993   -3.373884    0.995700
H      2.549633   -1.485869   -6.627515
H      2.341418    0.966547   -6.584249
H      1.341902   -2.923975   -5.002378
H      0.920090    1.987809   -4.907812
H     -0.100949   -1.885042   -3.331268
H      0.017079   -3.450037   -1.342016
H     -1.882712   -1.549257   -1.648030
H     -2.806488   -2.471220   -0.532776
H     -1.350007    3.936393    0.234885
H      2.518121   -0.675042    2.629644
H     -2.287860    1.898478    2.346412
H     -3.290462    2.338252    0.871234
H      2.721780   -0.465570    0.028123
H      2.347783    1.239185    0.229612
H     -2.936105   -0.188033   -0.266253
H     -2.834969   -0.150435    1.488856
H     -1.781550   -2.070725    1.345366
H     -1.414396    2.548610   -3.950549
