38

C      3.643370    0.179874    0.527020
C      2.879851   -2.121297    0.409321
C     -0.730519    2.641633    0.780919
C     -1.945256   -2.508938    0.871126
C      0.409283    1.963103   -1.357370
C      1.545526    1.334252   -0.585332
C     -3.340037   -0.725265   -0.208076
C      0.320090   -0.551640    0.530461
C      2.677692   -0.649906    0.184018
C     -0.872095    2.053644   -0.595849
C     -2.031440   -1.470644   -0.205637
C      1.424351   -0.128441   -0.411729
C     -1.031261   -0.387957   -0.055712
C     -2.925344    0.465363   -1.017148
C     -1.558333    0.718984   -0.541921
O     -3.513214    1.122023   -1.876921
H      4.572083   -0.242835    0.970664
H      3.592400    1.248425    0.406366
H      3.962734   -2.314451    0.264256
H      2.643930   -2.309685    1.473657
H      2.289870   -2.733933   -0.292022
H      0.232987    3.103558    0.985419
H     -1.502177    3.450080    0.947059
H     -1.007751    1.857622    1.539583
H     -1.628398   -2.100143    1.849894
H     -1.301379   -3.332511    0.519135
H     -2.964081   -2.932308    1.015709
H      0.245252    1.371044   -2.259003
H      0.733051    2.991062   -1.640765
H      1.690376    1.804776    0.400044
H      2.453056    1.545664   -1.187348
H     -4.148066   -1.287351   -0.719186
H     -3.571891   -0.440373    0.821617
H      0.469763   -0.030057    1.476920
H      0.468139   -1.635534    0.713956
H     -1.544610    2.720346   -1.182770
H     -1.911012   -1.983725   -1.182793
H      1.273061   -0.684461   -1.367564
