39

C      4.537794    0.048993    0.404041
C     -2.791075    1.613158    1.161856
C     -2.618202    1.097448   -1.220160
C      2.239948   -1.446351    0.661387
C      3.558476    0.279133   -0.461560
C     -2.053538   -1.722640   -0.342434
C      0.245038   -1.303901   -1.292260
C      0.102032    1.270048   -0.060373
C     -2.992332   -0.742255    0.328956
C      1.524372   -0.598997   -1.497083
C      1.440987    0.880435    0.549959
C     -0.781954   -0.998402   -0.530238
C     -0.877483    0.209719    0.348210
C     -2.311339    0.601552    0.157428
C      2.167719   -0.176564   -0.196979
H      5.541677    0.385843    0.197941
H      4.342799   -0.487707    1.343836
H     -2.564171    2.623877    0.736439
H     -2.248252    1.545201    2.119266
H     -3.889148    1.562150    1.307732
H     -2.911665    0.256724   -1.904311
H     -1.798671    1.627541   -1.706353
H     -3.533184    1.747980   -1.155755
H      2.153878   -1.154858    1.724303
H      1.399387   -2.129642    0.378881
H      3.212374   -1.959670    0.496944
H      3.793488    0.809595   -1.371836
H     -1.840308   -2.558707    0.379434
H     -2.466966   -2.140153   -1.273974
H      0.120099   -2.221304   -1.854211
H      0.157563    1.405929   -1.136289
H     -0.201451    2.209655    0.444517
H     -3.038096   -0.939467    1.422896
H     -4.005880   -0.750447   -0.119133
H      1.454136    0.250747   -2.182048
H      2.263989   -1.303814   -1.976719
H      1.299621    0.534118    1.609894
H      2.086394    1.786024    0.618944
H     -0.718052   -0.110986    1.374276
