43

C     -5.619998   -1.221436   -1.277052
C     -5.712429    1.092769   -0.525975
C      5.788865   -0.474839   -1.197871
C      4.434069   -0.772668   -1.140458
C     -3.545472   -0.631714    1.506040
C     -4.682590   -0.538230    0.896882
C     -1.070859   -0.443499    1.402527
C      5.420438    1.196337    0.436538
C     -1.195955    0.267248   -1.220719
C      1.880832    1.164852    1.616677
C     -2.308884   -0.356967    0.794883
C      6.281458    0.524547   -0.395478
C      3.571311   -0.101546   -0.308631
C      0.085318   -0.179757    0.712609
C     -2.378706    0.007950   -0.553268
C      4.064951    0.897540    0.493227
C      0.032750    0.179297   -0.610120
C      2.157422   -0.439434   -0.273662
C     -4.827080   -0.162744   -0.507390
C      1.522561   -0.190473    1.091254
O      7.625738    0.843770   -0.430538
O      1.820775   -1.213088    1.981208
O      3.187811    1.571853    1.331515
O      1.350379    0.394467   -1.084520
O     -3.605471    0.087069   -1.131172
H     -5.884435   -0.751644   -2.244668
H     -4.963150   -2.095234   -1.380743
H     -6.492165   -1.522149   -0.682460
H     -6.444941    1.061543   -1.339859
H     -6.263181    1.213191    0.422129
H     -5.080658    2.003271   -0.650483
H      6.460243   -1.024958   -1.870926
H      4.103085   -1.570860   -1.796651
H     -3.446530   -0.916119    2.567211
H     -5.584891   -0.757253    1.483452
H     -1.080744   -0.730911    2.449085
H      5.770082    2.001311    1.094403
H     -1.269494    0.550683   -2.272274
H      1.781017    1.181801    2.739918
H      1.197017    1.963153    1.257643
H      1.963633   -1.502789   -0.526549
H      8.266039    0.352793   -1.041325
H      2.691838   -0.957132    2.408282
