27

C      3.086225    0.057718   -0.286388
C     -1.785501   -0.312910   -0.182140
C     -0.760284   -1.280874    0.358503
C     -1.110742    0.643140   -1.136574
C      0.184968   -0.455219    1.236972
C     -0.026519    1.394383   -0.438374
C      0.913376    0.517270    0.341799
O     -2.857337   -0.964418   -0.774144
O     -1.353183   -2.274026    1.126101
O     -0.704874    0.015587   -2.301058
O     -0.507042    0.176745    2.254188
O     -0.616640    2.314652    0.439759
O      1.743551   -0.223574   -0.486464
H      3.651278   -0.593780   -1.003441
H      3.260722    1.118309   -0.632679
H      3.436554   -0.103451    0.732336
H     -2.173706    0.270113    0.668491
H     -0.163785   -1.769747   -0.420435
H     -1.888447    1.398082   -1.443904
H      0.953524   -1.170088    1.632183
H      0.580483    1.961639   -1.170891
H      1.501790    1.200369    1.012033
H     -2.730117   -0.941920   -1.749547
H     -1.987596   -2.747789    0.541879
H     -0.004601   -0.653369   -2.181307
H     -0.737404   -0.439246    2.968641
H      0.095305    2.862404    0.894462
