27

C     -3.082343    1.247731   -0.811413
C     -2.831297   -0.617592    0.720410
C      3.081984   -0.112273   -0.751681
C     -0.289352   -0.801961   -0.898843
C     -0.125191    0.784917    0.952588
C      0.931734   -1.202154   -0.639128
C      1.379095    0.796288    0.779581
C     -2.249989    0.407450   -0.179114
C     -0.799068    0.507793   -0.379137
C      1.922951   -0.442632    0.167761
O      2.384246   -1.273666    1.192422
H     -2.697172    2.011492   -1.477810
H     -4.155797    1.194699   -0.681061
H     -3.936626   -0.569343    0.721587
H     -2.574392   -1.651995    0.385373
H     -2.396666   -0.476049    1.728252
H      3.276490   -1.010467   -1.390242
H      2.768496    0.735594   -1.392738
H      3.955096    0.115179   -0.116522
H     -0.941425   -1.424146   -1.497014
H     -0.419747    0.030670    1.696616
H     -0.412902    1.797822    1.308825
H      1.268863   -2.161036   -1.033726
H      1.621973    1.649428    0.087933
H      1.820976    1.023363    1.771447
H     -0.574284    1.300327   -1.091653
H      3.074347   -1.859438    0.801845
