43

C      5.415269    1.194470   -1.650711
C      5.731658    0.973573    0.787617
C     -5.813212    1.037372   -0.403895
C     -4.472610    0.957198   -0.753911
C      3.588066   -1.524069   -0.362215
C      4.714569   -0.836966   -0.430013
C      1.116160   -1.416267   -0.135381
C     -5.408895   -0.464696    1.409405
C      1.147135    1.326713   -0.005773
C     -1.820537   -1.257493    1.570230
C      2.345863   -0.763809   -0.214156
C     -6.275243    0.320303    0.683641
C     -3.589408    0.179828   -0.043761
C     -0.057089   -0.706577    0.004087
C      2.327804    0.613952   -0.146002
C     -4.065144   -0.527973    1.036384
C     -0.061315    0.668934    0.070781
C     -2.186935    0.099435   -0.414460
C      4.799231    0.644334   -0.366080
C     -1.480917   -1.119618    0.113975
O     -7.625163    0.425450    1.004387
O     -1.756542   -2.260855   -0.619227
O     -3.226902   -1.331878    1.796209
O     -1.392366    1.121378    0.211609
O      3.549483    1.274374   -0.223602
H      6.133466    0.486118   -2.091393
H      4.612651    1.473573   -2.349058
H      5.901634    2.163412   -1.344035
H      5.671535    0.157720    1.544988
H      5.454112    1.949010    1.262664
H      6.771598    0.988107    0.409354
H     -6.512273    1.648383   -0.960427
H     -4.163276    1.536112   -1.610344
H      3.576968   -2.605908   -0.413458
H      5.680366   -1.352091   -0.541454
H      1.127297   -2.513356   -0.189349
H     -5.809729   -1.008104    2.250742
H      1.183463    2.418001    0.043665
H     -1.288908   -2.098069    2.057094
H     -1.476744   -0.333608    2.081627
H     -2.019185    0.104917   -1.526677
H     -7.885267    1.167281    1.654700
H     -2.460675   -2.808610   -0.194561
