27

C      3.079058    0.721952    0.247743
C     -1.833971   -0.792506   -0.328726
C     -0.618015   -1.709903   -0.208705
C     -1.466557    0.601176   -0.668620
C      0.229359   -1.059007    0.894662
C     -0.243823    1.133645   -0.027257
C      0.851093    0.149168    0.190763
O     -2.543536   -0.896016    0.846476
O      0.076772   -1.620417   -1.422389
O     -2.545900    1.431558   -0.283518
O      1.162948   -1.912973    1.408207
O      0.246548    2.180297   -0.839755
O      1.868114    0.702920    0.930451
H      3.847503    1.178043    0.898741
H      2.967077    1.293421   -0.700241
H      3.429159   -0.289889   -0.030443
H     -2.472544   -1.207980   -1.143255
H     -0.928651   -2.717599    0.044461
H     -1.399851    0.735021   -1.781824
H     -0.456132   -0.638964    1.662011
H     -0.528051    1.572519    0.961680
H      1.258745   -0.154302   -0.795542
H     -2.981612   -0.064043    1.093736
H     -0.295421   -0.962333   -2.029777
H     -2.234360    2.251222    0.160435
H      1.031849   -2.854226    1.186192
H      0.500198    2.929215   -0.265504
