56

C     -4.036990    1.344665    0.554718
C     -1.998661    2.102696   -0.421327
C      3.845139    0.549274   -1.747479
C      3.517993    0.469761    0.595670
C     -4.677798    2.532063    0.182842
C     -2.646315    3.261763   -0.777424
C      4.727674    1.605404   -1.607609
C      4.409969    1.540513    0.763104
C      0.006027   -1.330736    3.289246
C     -1.215899    0.120253    1.821665
C     -0.113699   -1.932685   -2.094752
C     -2.433567   -2.223055   -2.309099
C      1.983444   -2.517243    2.628101
C     -2.715447    1.134506    0.255565
C      3.244296   -0.014018   -0.646619
C     -0.058431   -0.801891    2.009074
C     -3.970946    3.493521   -0.488087
C      5.010109    2.102177   -0.343384
C      1.037117   -2.189877    3.582719
C     -1.189137   -2.486036   -2.806927
C     -2.080893   -0.157018    0.664366
C     -0.263797   -1.177498   -0.976108
C     -2.597972   -1.458142   -1.175069
C      1.896230   -1.966724    1.334540
C      0.873504   -1.122379    1.062359
C     -1.532228   -0.910228   -0.470572
C      0.970350   -0.689576   -0.354156
C      2.272678   -1.168968   -0.787090
O     -4.608782    4.663883   -0.852749
O      5.892826    3.158448   -0.203569
O      1.157474   -2.761117    4.866959
O     -0.979148   -3.254989   -3.951316
O     -3.907714   -1.223628   -0.711757
O      2.686162   -2.113549    0.207159
H     -4.651743    0.632871    1.089896
H     -0.973223    1.904079   -0.636278
H      3.609679    0.147080   -2.709597
H      3.103902    0.104479    1.505930
H     -5.718293    2.703652    0.415096
H     -2.085802    4.039921   -1.316753
H      5.214084    2.067420   -2.452710
H      4.636578    1.935721    1.751543
H     -0.734267   -1.069890    4.023967
H     -1.790559    0.233995    2.764210
H     -0.745813    1.136419    1.662047
H      0.844005   -2.180518   -2.543648
H     -3.292110   -2.643289   -2.845898
H      2.800690   -3.187022    2.831365
H     -2.932574   -0.799434    1.056478
H      0.905329    0.449155   -0.389309
H      2.415480   -1.557403   -1.795064
H     -4.624202    5.468839   -0.237361
H      6.333251    3.571511   -1.008872
H      0.708668   -3.652426    5.086806
H     -0.863385   -4.255287   -3.820464
H     -4.663260   -1.629446   -1.236651
