21

C      1.128298    0.087665   -0.882298
C     -0.057945    0.932462   -0.662404
C      1.533861   -0.881027    0.129480
C     -1.383394    0.293884   -0.495224
C      0.175925    1.940743    0.433288
C     -1.602996   -0.593494    0.625469
O      1.069911   -1.124838    1.237747
O      2.661577   -1.680462   -0.230248
O     -1.613564   -0.457938   -1.689659
O      0.090858    3.175517    0.228178
O      0.495094    1.539595    1.716621
O     -1.660072   -0.220886    1.836530
O     -1.769259   -1.959666    0.410695
H      2.038279    0.737269   -1.066850
H      1.057351   -0.475436   -1.876486
H     -0.158290    1.582247   -1.593705
H     -2.151448    1.112642   -0.576174
H      3.186811   -2.152400    0.501319
H     -1.037248   -1.242481   -1.706407
H      0.076158    1.980048    2.520578
H     -2.079908   -2.593445    1.139548
