55

C     -2.300410    0.834256   -2.774290
C      5.660991   -0.127130    1.499365
C      6.777329    1.326128    0.028276
C      6.847467   -0.487708    2.105836
C      7.996360    0.976993    0.627161
C      4.136374    1.984465   -1.160667
C      0.908313    0.162556    0.390037
C     -4.775361   -2.680410   -1.387599
C      5.606421    0.777488    0.459938
C      8.028965    0.075398    1.659439
C      2.889756    2.294106   -1.719578
C      4.292205    1.098723   -0.123082
C      1.984982    0.800752   -0.162222
C     -0.429662    0.346774   -0.041216
C     -4.500449   -1.474044   -0.502252
C      1.768485    1.679329   -1.201765
C     -5.266566   -1.653206    0.772695
C      0.501071    1.914641   -1.681616
C     -4.950377   -0.492495    1.677641
C     -3.489225   -0.227870    1.806998
C     -0.576775    1.223096   -1.070342
C     -2.750600   -0.322695    0.472824
O     -6.129144   -2.724334   -1.724341
O      9.191695   -0.324085    2.306287
O      2.785183    3.097074   -2.654144
O     -6.624979   -1.729716    0.523427
O      0.247838    2.763672   -2.694363
O     -5.482913   -0.708464    2.951717
O     -3.244913    1.057908    2.288439
O     -1.822043    1.509944   -1.612455
O      3.205397    0.546433    0.329157
O     -1.403009   -0.346971    0.594417
O     -3.144568   -1.490454   -0.206296
H     -2.882544   -0.061480   -2.522870
H     -3.044857    1.548935   -3.235164
H     -1.512709    0.685504   -3.517469
H      4.742829   -0.575471    1.858340
H      6.791885    2.029411   -0.770186
H      6.811784   -1.205158    2.917138
H      8.925929    1.405457    0.292597
H      5.009086    2.482901   -1.586751
H      1.068842   -0.524904    1.203057
H     -4.490592   -3.620491   -0.890065
H     -4.210975   -2.614552   -2.356154
H     -4.727823   -0.555806   -1.041312
H     -4.883938   -2.573677    1.263797
H     -5.457915    0.405243    1.253037
H     -3.029225   -0.942279    2.506133
H     -3.114130    0.529596   -0.118429
H     -6.278356   -3.526510   -2.270846
H      9.557951    0.152257    3.117446
H     -7.079174   -1.778520    1.410985
H      0.773750    3.331908   -3.255597
H     -4.838415   -0.399114    3.641355
H     -4.069241    1.612021    2.323532
