33

C     -2.797634   -0.601000   -1.036047
C      4.494382   -0.032849    0.320030
C      3.562736   -0.843407    0.927982
C     -4.032106   -0.028946   -0.845066
C     -1.849625    0.917885    0.518762
C      2.829509    0.995515   -1.004996
C     -1.705356   -0.127676   -0.353958
C      4.159670    0.894575   -0.648016
C      2.235275   -0.742371    0.571410
C     -4.179853    1.027450    0.036203
C     -3.080830    1.494343    0.714382
C      1.881876    0.178143   -0.393510
C      1.199404   -1.571515    1.177546
C     -0.048147   -1.790127    0.442878
C     -0.382184   -0.781220   -0.593733
O      5.144108    1.705869   -1.246435
O     -5.452099    1.593367    0.212491
O     -3.266048    2.554061    1.589250
O      1.391298   -2.076828    2.302436
O      0.020575   -3.094006   -0.102021
O      0.552605    0.259285   -0.730954
H     -2.686418   -1.430792   -1.729483
H      5.534819   -0.114428    0.601821
H      3.815289   -1.579189    1.693605
H     -4.904901   -0.404959   -1.388198
H     -0.987506    1.293413    1.058825
H      2.542290    1.721870   -1.768042
H     -0.878053   -1.858892    1.204936
H     -0.450388   -1.301760   -1.570565
H      5.378592    2.616445   -0.831138
H     -6.240354    1.247862   -0.283160
H     -2.519218    2.964527    2.131071
H      0.718290   -3.084644   -0.789788
