59

C      4.725271   -0.116089    0.925542
C      2.413489   -2.132400   -0.586230
C     -2.260024   -4.769297    1.176378
C     -1.770951    4.705936    0.679133
C     -4.502675   -1.220560   -0.840171
C     -2.318977    1.157200    1.484823
C     -1.127938    0.667732   -2.949638
C      3.018908    0.578696   -0.669010
C      1.454978   -1.645849    1.680386
C      1.920353    2.618224   -0.947010
C     -0.582786   -2.540073    0.961508
C      3.227139   -0.122472    0.683758
C      2.690962   -1.498977    0.755951
C      1.723313    1.308218   -0.640438
C      0.232784   -1.463031    0.865857
C      0.825290    3.490467   -0.904250
C     -1.751945   -2.611196    0.223799
C      0.417193    0.899017   -0.296391
C     -0.147628   -0.416480   -0.006480
C     -0.446279    3.057378   -0.556356
C     -2.090721   -1.555647   -0.634081
C     -0.659500    1.736051   -0.241505
C     -1.286799   -0.447872   -0.759132
O      1.011128    4.831360   -1.218611
O     -2.586972   -3.706888    0.322324
O     -1.497465    3.995740   -0.535078
O     -3.282334   -1.685175   -1.353392
O     -1.865111    1.198150    0.143637
O     -1.540912    0.607872   -1.598051
H      5.275040   -0.023310   -0.033830
H      5.031994    0.658997    1.658261
H      5.021965   -1.110043    1.342703
H      1.656736   -1.620895   -1.176617
H      3.393600   -2.236980   -1.097881
H      2.053315   -3.165662   -0.390948
H     -3.121943   -5.469763    1.207160
H     -2.010758   -4.398658    2.182712
H     -1.403545   -5.339944    0.721632
H     -2.420925    4.109408    1.348899
H     -2.261940    5.669325    0.481035
H     -0.802942    4.825589    1.212069
H     -4.912049   -0.474729   -1.564046
H     -5.228239   -2.048209   -0.670703
H     -4.311785   -0.753190    0.142756
H     -1.548436    1.491919    2.178494
H     -2.558221    0.103132    1.720520
H     -3.294341    1.695336    1.594114
H     -1.992114    0.828880   -3.634206
H     -0.547083   -0.206768   -3.269954
H     -0.494254    1.564286   -3.073520
H      3.012790   -0.130869   -1.496835
H      3.810690    1.349790   -0.785226
H      1.458691   -2.614777    2.173789
H      1.540195   -0.856196    2.455772
H      2.909795    2.978287   -1.219272
H     -0.344462   -3.366582    1.610791
H      2.788771    0.570001    1.442355
H      3.463812   -2.159769    1.249185
H      1.893850    5.211358   -1.476480
