39

C      1.877482    0.987697    2.756207
C      2.978888    0.465219    0.658618
C      1.175978   -2.889080   -1.816596
C     -3.088703   -0.067855    0.080737
C     -1.119117   -0.536175   -2.746398
C     -0.901163   -1.923349   -2.299784
C     -1.286075    0.524102   -1.675645
C      0.281498   -1.575623    0.047941
C     -1.759480    1.871741    0.411030
C      0.429469   -0.487986    0.718921
C     -0.571794    1.622392    1.263351
C      1.912044    1.335264    1.313723
C      0.181364   -2.090173   -1.306610
C     -1.988579    0.729348   -0.625063
C      0.602518    0.971527    0.571760
H      0.884622    1.018791    3.234096
H      2.499730    1.762620    3.297756
H      2.402215    0.014845    2.978280
H      3.889457    0.580407    1.293703
H      3.222660    0.786030   -0.364933
H      2.709637   -0.619684    0.730114
H      1.117316   -3.302065   -2.803901
H      2.033593   -3.118303   -1.213678
H     -3.689511    0.628404    0.761006
H     -3.818378   -0.609608   -0.448873
H     -2.614811   -0.756044    0.833321
H     -1.931048   -0.508784   -3.504330
H     -0.209412   -0.310159   -3.401367
H     -1.873350   -2.247562   -1.810871
H     -0.808847   -2.647259   -3.137256
H     -0.537647    1.289436   -2.165830
H      0.272255   -2.580154    0.710355
H     -1.920727    2.878309    0.042731
H     -2.597300    1.817909    1.180471
H      0.437257   -0.553507    1.905051
H     -0.228454    2.628709    1.578165
H     -0.863465    1.094544    2.189717
H      2.175953    2.373938    1.134642
H      0.723922    1.442140   -0.370565
