54

C     -0.733306   -4.259713    0.069200
C     -2.523943   -1.798849   -1.395684
C      5.001141   -1.674272   -0.172475
C      3.534609    1.928591    2.664033
C      0.889786    2.180416   -2.110978
C      0.163157   -2.289493   -1.015417
C     -2.647843   -1.205895    0.949424
C      2.176752   -1.281466   -0.351236
C     -3.309968    0.997712    0.512400
C     -3.291526    4.562575   -0.201631
C     -0.786952   -2.732090    0.090002
C     -2.172241   -2.288462    0.018444
C      0.851036   -1.087937   -0.434010
C     -2.242262    0.143825    0.526493
C      2.997132   -0.310075    0.222962
C     -3.176349    2.314745    0.083129
C      0.324002    0.107119    0.066739
C     -1.020538    0.669344    0.089835
C      1.087765    1.096274    0.650587
C      2.436834    0.881580    0.723671
C     -1.925374    2.778110   -0.347877
C     -0.825269    1.955180   -0.353947
O      0.461873    2.209070    1.133031
O      4.362984   -0.528859    0.295211
O      3.212997    1.854485    1.293930
O      0.435098    2.299369   -0.784116
O     -4.061874    3.366444   -0.028919
O     -2.035373    4.111360   -0.726424
H      0.288808   -4.589053   -0.142456
H     -1.088294   -4.599008    1.061445
H     -1.463658   -4.579199   -0.694069
H     -2.370651   -2.566786   -2.152057
H     -3.604148   -1.513209   -1.433253
H     -1.968097   -0.852076   -1.605636
H      6.017159   -1.705156    0.281524
H      4.442031   -2.616384    0.004115
H      5.185587   -1.517264   -1.274368
H      4.636646    1.833302    2.752610
H      3.069628    1.121973    3.258871
H      3.276788    2.933373    3.067968
H      1.344013    1.187122   -2.215302
H     -0.041068    2.147565   -2.749665
H      1.523060    3.023580   -2.399746
H      0.955683   -3.044134   -1.193143
H     -0.353983   -2.047586   -1.946748
H     -2.272871   -1.414432    1.953143
H     -3.750551   -1.247189    0.986881
H      2.584126   -2.206393   -0.740399
H     -4.272431    0.613213    0.849014
H     -3.140696    4.974789    0.829592
H     -3.784875    5.279179   -0.863275
H     -0.373403   -2.459685    1.106438
H     -2.848810   -3.153116    0.186538
H      0.827660    2.997483    1.605602
