14

C      1.279983   -0.243039    0.295487
C      1.591135    0.430035    1.684916
C     -0.241087   -0.042499    0.201884
C     -0.783695   -0.571367   -0.997825
N      1.796645    0.908112    2.689754
N     -0.543483    1.370389    0.415554
O     -1.479594    0.382285   -1.693746
O     -0.801081   -1.738972   -1.629230
H      1.870023    0.280815   -0.417522
H      1.545464   -1.283554    0.450483
H     -0.638794   -0.538385    1.149132
H     -0.446568    1.789522   -0.571206
H     -1.588721    1.396773    0.629268
H     -1.560227   -2.140115   -2.206950
