46

C     -5.196024    1.050786    0.258095
C     -5.177960   -1.251159   -0.544677
C      3.363375   -0.005618    2.329267
C      3.502211   -1.805199    0.726127
C      1.841161   -0.578994   -1.933347
C      3.263623    1.680359   -0.647962
C      3.951024    0.557631    0.019003
C      1.818680    1.614356   -0.898973
C      0.586122   -0.503063    1.227957
C     -4.460367   -0.259883    0.349401
C     -0.614333   -0.234387    0.408618
C      1.663120   -0.247669    0.528501
C     -3.035000   -0.107860   -0.040156
C     -0.228813    0.184932   -0.788488
C     -2.034183   -0.378161    0.774563
C     -2.706480    0.361689   -1.384021
C     -1.302098    0.502401   -1.741743
C      3.097217   -0.344179    0.863676
C      1.222168    0.203245   -0.808896
O     -2.396551   -0.826107    2.054937
O     -3.661768    0.619163   -2.160043
O     -1.042285    0.907054   -2.900684
H     -4.560333    1.752428   -0.294058
H     -6.197536    0.929602   -0.219376
H     -5.384425    1.389996    1.307473
H     -5.989852   -1.739132    0.048199
H     -5.659080   -0.761318   -1.408848
H     -4.506470   -2.089309   -0.859359
H      2.612685   -0.482597    2.990429
H      4.393544   -0.340612    2.553519
H      3.350465    1.095672    2.397194
H      4.338263   -2.050986    1.433985
H      3.874817   -2.052555   -0.275076
H      2.605455   -2.420549    0.940116
H      2.747409   -0.084217   -2.341287
H      1.996273   -1.640231   -1.709061
H      1.117059   -0.558664   -2.801247
H      3.475267    2.658816   -0.116824
H      3.784218    1.833629   -1.642321
H      4.769771    0.970564    0.647203
H      4.496590   -0.124591   -0.701547
H      1.559088    1.995079   -1.911277
H      1.266486    2.225326   -0.128257
H      0.524226   -0.863096    2.266104
H     -4.488488   -0.677767    1.380611
H     -2.578274   -0.104823    2.752550
