51

C      5.067357    0.645619    1.131474
C     -3.668519    4.507874   -0.070200
C      1.262285   -0.707310   -1.782716
C      2.357266   -0.515978   -2.599073
C      2.591370   -0.134163    0.074527
C     -2.347349    1.947965   -0.178288
C     -0.022416    1.634428    1.218158
C     -2.272169   -0.360855   -0.995271
C     -0.603569   -2.864506    1.259965
C     -2.188107   -2.714729   -1.626514
C      1.380090   -0.514843   -0.434378
C     -1.668276    0.725349   -0.198750
C     -0.522647    0.559246    0.484674
C     -0.581938   -1.914443    0.058174
C      3.591421   -0.132948   -2.121040
C     -0.656464    2.858063    1.268571
C      3.675839    0.053534   -0.749447
C     -1.838111    3.001290    0.552615
C      0.186164   -0.724195    0.451544
C     -1.941803   -1.727114   -0.509170
O      0.694273   -3.226043    1.610499
O     -1.987095   -4.028567   -1.217328
O      4.675455    0.054241   -2.947967
O     -0.155717    3.932088    2.001934
O     -2.859847   -2.065927    0.503239
O      4.929663    0.443107   -0.261013
O     -2.465416    4.234938    0.610922
H      5.065421   -0.320820    1.674269
H      6.036960    1.165539    1.347933
H      4.255757    1.296693    1.501729
H     -3.623984    4.324254   -1.147123
H     -4.453912    3.847588    0.384634
H     -3.952464    5.561692    0.122403
H      0.294582   -1.010066   -2.186558
H      2.239349   -0.676208   -3.677651
H      2.705832    0.022783    1.136661
H     -3.267297    2.114813   -0.714721
H      0.899276    1.472452    1.757723
H     -1.954751   -0.190394   -2.045686
H     -3.370554   -0.202597   -0.981328
H     -1.265003   -3.716589    1.092228
H     -1.009385   -2.295976    2.139763
H     -3.257130   -2.670735   -1.976729
H     -1.520942   -2.528602   -2.483836
H      0.036924   -2.479708   -0.704813
H      0.629235   -0.858871    1.490298
H      1.186121   -3.430555    0.770528
H     -2.791832   -4.582701   -1.249687
H      5.551114    0.331718   -2.561370
H      0.704169    3.779290    2.504757
H     -3.769229   -1.919125    0.110226
