18

C      1.986353    0.396360   -0.233071
C     -0.086125   -0.421901    1.656208
C     -2.044468    0.757759   -0.918806
C      0.934413   -0.643491   -0.594980
C     -0.340787   -0.361488    0.184578
O     -0.840592    0.827819   -0.268375
H      2.799698    0.318572   -0.980637
H      2.380467    0.177434    0.778270
H      1.524053    1.394376   -0.322661
H     -0.876671   -1.029213    2.178618
H      0.868065   -0.950184    1.861971
H     -0.023967    0.570139    2.144195
H     -2.822748    0.332552   -0.223198
H     -2.336936    1.790627   -1.203355
H     -2.044241    0.155992   -1.840828
H      1.284423   -1.667455   -0.479450
H      0.671105   -0.432678   -1.671729
H     -1.032043   -1.215220   -0.066750
