53

C      7.556327   -1.073658    0.447733
C      6.469137   -0.517998    1.328791
C      5.788831    0.624124    0.633653
C      5.149936    0.261388   -0.667226
C      4.068085   -0.819837   -0.495489
C     -4.160299    0.643354   -1.371558
C      3.034079   -0.353426    0.388004
C     -3.070020   -0.293817   -1.064601
C     -5.034491    1.201274   -0.341263
C      1.794432   -0.243348    0.025833
C     -2.053933    0.164336   -0.094193
C     -5.900049    0.340098    0.486261
C      1.306609   -0.569611   -1.285656
C     -1.272647    1.374275   -0.378659
C     -5.277274   -0.656463    1.397719
C      0.692857    0.626904   -1.960415
C     -0.407273    1.430907   -1.572858
C     -6.387537   -1.349869    2.167511
O     -6.105238   -2.239884    3.004364
O     -7.682579   -0.955794    1.900606
O     -0.596357    0.445789   -2.530926
H      7.225320   -2.056082    0.064713
H      8.459856   -1.258963    1.071728
H      7.800547   -0.362950   -0.369844
H      5.814811   -1.320760    1.661221
H      6.939208   -0.083775    2.253403
H      6.578250    1.376480    0.400827
H      5.068924    1.147858    1.295630
H      4.634574    1.166334   -1.049516
H      5.893930   -0.025673   -1.416721
H      4.622017   -1.650039    0.045781
H      3.864765   -1.183304   -1.474040
H     -4.861275    0.051880   -2.074612
H     -3.828479    1.460758   -2.092051
H      3.366116   -0.087205    1.421362
H     -3.441744   -1.282667   -0.791146
H     -2.585958   -0.512923   -2.089029
H     -5.662171    2.008407   -0.869970
H     -4.455422    1.851435    0.402421
H      1.050430    0.115111    0.762397
H     -2.619581    0.368981    0.872511
H     -1.406531   -0.696804    0.168960
H     -6.615744    1.017363    1.060598
H     -6.636741   -0.204011   -0.211853
H      0.460120   -1.317379   -1.139671
H      1.976381   -1.091576   -1.982104
H     -2.044845    2.231332   -0.386442
H     -0.699338    1.635346    0.562655
H     -4.765758   -1.461827    0.848087
H     -4.612540   -0.122022    2.112144
H      1.362073    1.053180   -2.786289
H     -0.371802    2.514720   -1.976250
H     -8.421990   -1.319970    2.487928
