56

C      2.915624    0.070746   -0.705909
C      5.235405    0.481926   -0.055876
C      3.617352    0.664929    1.630419
C      1.622491   -0.036340   -0.511956
C     -3.767578    2.222620    0.441882
C     -2.499103    2.158857   -1.536745
C      6.237580    0.794260    0.838469
C      4.612200    0.983480    2.556940
C     -4.018388    3.569540    0.267676
C     -2.743545    3.521868   -1.727845
C      0.952593   -0.626332   -2.845592
C     -2.199683   -1.676644    2.056837
C     -0.557698   -2.571585    0.635595
C     -1.440385   -3.919306    2.408884
C     -1.334201   -0.992480   -3.359511
C      3.902862    0.409274    0.315541
C     -3.009676    1.490701   -0.446321
C      0.634403   -0.374226   -1.530039
C     -1.361815   -1.485675    0.974034
C      5.922188    1.048182    2.161208
C     -3.506121    4.222773   -0.819113
C     -2.241209   -2.861021    2.758765
C     -0.591247   -3.764363    1.333154
C     -0.031304   -0.942088   -3.790669
C     -1.708420   -0.744089   -2.032448
C     -0.710440   -0.441265   -1.152388
C     -1.304929   -0.215644    0.187933
C     -2.763815    0.063799   -0.229791
O      6.950915    1.363932    3.057112
O     -3.760412    5.592899   -0.997652
O     -3.093377   -3.010336    3.834834
O      0.215784   -4.837738    0.984583
O      0.338687   -1.186847   -5.098502
O     -2.928812   -0.738376   -1.389403
H      3.250903   -0.117345   -1.739407
H      5.532287    0.290135   -1.085993
H      2.603238    0.620045    1.960400
H      1.306334    0.155159    0.526955
H     -4.193805    1.747074    1.317337
H     -1.903610    1.689198   -2.278858
H      7.281438    0.854483    0.562645
H      4.375015    1.182346    3.587763
H     -4.618847    4.102355    0.991317
H     -2.354216    4.065398   -2.573770
H      1.990716   -0.583183   -3.175366
H     -2.839913   -0.826931    2.344074
H      0.110631   -2.468423   -0.204811
H     -1.458520   -4.870219    2.954789
H     -2.114089   -1.234625   -4.071786
H     -0.869903    0.616829    0.742146
H     -3.483271   -0.368382    0.503621
H      6.713110    1.548636    4.023715
H     -4.593051    5.863960   -1.530336
H     -4.022967   -3.364168    3.649957
H      1.131615   -4.997388    1.345817
H      0.570978   -2.140384   -5.392224
