60

C     -0.519122    6.848996    1.949722
C     -4.235169   -0.902217   -6.012807
C      3.045406   -0.237550    6.008701
C     -4.569295   -3.445208   -0.846111
C      3.056429   -4.608327   -0.502265
C      0.088663    0.587023   -2.567064
C     -1.062356    0.664742   -3.312527
C     -0.582317   -1.371444   -1.437404
C      0.629905    2.374502    3.040916
C      0.794277    2.715577    0.718224
C      2.464316   -0.506055    1.431191
C      0.301202    5.593469    1.956453
C     -3.074282   -0.882099   -5.101346
C      2.770629    0.526600    4.761341
C     -3.643460   -2.304231   -0.963879
C      1.965279   -3.725980    0.000614
C      0.354235   -0.389667   -1.646552
C      0.355333    3.167705    1.961339
C      1.731091    0.753689    1.707332
C     -2.006123   -0.352980   -3.080225
C      1.329788    1.142025    2.931141
C      1.463735    1.551960    0.554246
C     -1.753961   -1.309921   -2.182116
C      1.621264   -1.217489    0.315727
C      1.663130   -0.341673   -0.918516
O      1.553553    5.626616    1.962370
O     -1.983236   -1.398803   -5.479695
O      3.657689    1.305788    4.327366
O     -3.700020   -1.315430   -0.182655
O      0.844154   -4.245316    0.418572
O     -0.313237    4.371458    1.957539
O     -3.175412   -0.296433   -3.822771
O      1.566683    0.404919    4.073514
O     -2.700230   -2.329848   -1.951318
O      1.988554   -2.419982    0.081046
O      1.951737    0.979319   -0.597671
H      0.137094    7.715894    1.871202
H     -1.134568    6.800562    1.025212
H     -1.157311    6.905713    2.856516
H     -3.929970   -1.365831   -6.964484
H     -5.033128   -1.510158   -5.517812
H     -4.594533    0.156068   -6.162816
H      2.368304   -1.111598    6.022205
H      2.737706    0.410342    6.884702
H      4.110896   -0.527221    6.102542
H     -4.017557   -4.398741   -1.012939
H     -5.399756   -3.394202   -1.598019
H     -5.024461   -3.523142    0.174411
H      4.050679   -4.321360   -0.110017
H      3.092950   -4.561061   -1.600391
H      2.850403   -5.665761   -0.185755
H      0.862812    1.354966   -2.704404
H     -1.273084    1.427823   -4.032921
H     -0.420185   -2.147041   -0.733000
H      0.300490    2.692187    3.995005
H      0.597668    3.327424   -0.173268
H      3.414652   -0.262435    0.921666
H      2.597834   -1.165263    2.278216
H      0.527305   -1.097115    0.700839
H      2.456928   -0.753788   -1.589126
