52

C      4.348674   -1.646446    1.578859
C      0.907077    3.560639   -1.874348
C     -1.005569   -2.771214   -2.126153
C     -3.828811    0.820796    2.304120
C     -3.829661    1.234920   -0.190566
C      2.415503    0.819498    0.322368
C      1.196962   -2.222331   -0.434686
C      3.282032   -0.240232   -0.275372
C      2.304564   -2.346627    0.512230
C      2.167859    1.864394   -0.708583
C     -0.168302   -2.287990    0.262525
C     -0.055386    2.297242    0.118608
C     -0.980225    1.178554   -0.307057
C     -2.211925   -1.291811   -0.540289
C      3.260404   -1.437627    0.584959
C      1.045439    2.540943   -0.807154
C     -1.182221   -2.085225   -0.809346
C     -1.626665    0.625577    0.935016
C     -2.314339   -0.654524    0.776788
C     -3.152798    0.578306    0.970776
H      4.489702   -2.709073    1.832646
H      5.312169   -1.237831    1.180622
H      4.053294   -1.067935    2.488534
H      1.854494    3.737504   -2.419228
H      0.634354    4.538596   -1.386983
H      0.112167    3.279915   -2.575637
H     -0.089199   -2.477073   -2.644572
H     -0.971923   -3.870674   -1.915660
H     -1.860114   -2.590688   -2.781554
H     -3.990709   -0.124625    2.850703
H     -4.809913    1.317141    2.198566
H     -3.177161    1.532384    2.863854
H     -3.581452    2.314629   -0.286526
H     -3.621199    0.768958   -1.163363
H     -4.928719    1.183850   -0.028655
H      1.469033    0.428080    0.746705
H      2.960787    1.293609    1.160110
H      1.191399   -1.312546   -1.030301
H      1.243542   -3.080460   -1.137083
H      3.022747   -0.468969   -1.335642
H      4.322380    0.159122   -0.309824
H      2.350842   -3.197766    1.171474
H      2.979802    2.059427   -1.408325
H     -0.265559   -3.247888    0.780502
H     -0.239562   -1.493121    1.027550
H     -0.704621    3.207521    0.277421
H      0.312132    2.056239    1.159613
H     -1.758869    1.649701   -0.964768
H     -0.471026    0.413591   -0.905467
H     -2.936787   -1.166580   -1.352185
H     -1.161762    0.882752    1.919291
H     -2.312879   -1.314631    1.695487
