25

C      3.662808    0.147178    0.530937
C      2.233474   -0.351276    0.327630
C      1.670651    0.407755   -0.833703
C      0.267130   -0.030805   -1.095078
C     -0.673699    0.180873    0.052616
C     -2.044803   -0.320408   -0.399783
C     -3.058298   -0.155884    0.669879
N     -2.405869    0.356908   -1.609469
O     -4.079165    0.529082    0.412116
O     -2.937527   -0.712267    1.922691
H      4.366693   -0.423859   -0.099654
H      3.916991   -0.018402    1.597478
H      3.728035    1.216017    0.262593
H      1.639485   -0.109127    1.240963
H      2.292475   -1.422456    0.115339
H      2.303324    0.182435   -1.714772
H      1.721674    1.500902   -0.649907
H     -0.130740    0.569862   -1.957402
H      0.221138   -1.091230   -1.379524
H     -0.749542    1.263916    0.313860
H     -0.361309   -0.341157    0.978529
H     -1.932983   -1.411708   -0.630638
H     -3.009201   -0.285388   -2.187694
H     -2.902243    1.251823   -1.413763
H     -3.738499   -0.932784    2.524892
