45

C      2.861705    1.531378   -0.968696
C      4.086300    1.423586   -0.141777
C      4.096276    0.475238    0.989942
C      3.896659   -0.956179    0.735691
C      2.615733   -1.432527    0.170523
C      1.422430   -1.155678    1.042767
C      0.124939   -1.670406    0.482074
C     -3.237239   -0.021001   -0.376788
C     -2.418090    0.855898    0.476392
C     -0.194155   -1.051144   -0.857853
C     -2.724363   -1.349946   -0.672127
C     -3.132944    2.196928    0.757997
C     -1.474938   -1.534903   -1.404570
C     -4.396399    2.027314    1.477617
O     -1.583993   -1.002385   -2.733661
O     -5.128814    3.051622    1.626800
O     -4.864079    0.835039    2.015289
H      2.987019    0.901769   -1.898580
H      1.912805    1.377510   -0.466711
H      2.789570    2.579806   -1.415220
H      4.258598    2.454457    0.307484
H      4.985234    1.293872   -0.795559
H      3.411848    0.843652    1.795438
H      5.121773    0.576732    1.474594
H      4.019499   -1.488076    1.732131
H      4.729312   -1.375108    0.118700
H      2.404519   -1.129498   -0.849536
H      2.697250   -2.563694    0.128420
H      1.277810   -0.076319    1.251797
H      1.590815   -1.615409    2.061097
H      0.202932   -2.783764    0.359034
H     -0.660965   -1.438805    1.206311
H     -3.416060    0.562284   -1.355478
H     -4.285575   -0.141695    0.047089
H     -1.508265    1.206397   -0.074631
H     -2.127142    0.394515    1.429671
H      0.595653   -1.463608   -1.618114
H      0.027078    0.002479   -0.846180
H     -2.641576   -1.947745    0.312545
H     -3.542623   -1.980109   -1.194898
H     -2.397898    2.830812    1.279848
H     -3.339508    2.643160   -0.239633
H     -1.321320   -2.642805   -1.628106
H     -1.969962   -0.080398   -2.640636
H     -5.749853    0.836757    2.543242
