25

C     -3.160974    0.731336    0.962037
C     -2.925907   -0.322551   -0.084343
C     -1.512182   -0.842013   -0.073597
C     -0.490365    0.237518   -0.331033
C      0.858642   -0.447939   -0.286053
C      2.000051    0.502979   -0.527313
C      3.261090   -0.282757   -0.458831
N      2.023226    1.432144    0.597113
O      4.128706   -0.108163    0.439674
O      3.561932   -1.275149   -1.400705
H     -4.184879    0.651006    1.425578
H     -3.005428    1.727025    0.511769
H     -2.398847    0.551088    1.773263
H     -3.238238    0.018669   -1.099787
H     -3.585868   -1.180186    0.162708
H     -1.394194   -1.598156   -0.865303
H     -1.327620   -1.259637    0.938173
H     -0.625908    0.716184   -1.312011
H     -0.576607    1.018050    0.469136
H      0.931536   -0.952216    0.685473
H      0.843981   -1.209065   -1.105390
H      1.935406    1.041488   -1.467336
H      2.794389    2.123029    0.510745
H      2.126512    0.902393    1.480721
H      3.961548   -2.175077   -1.111712
