57

C     -4.280939   -0.373075   -0.908428
C     -5.462065    0.412562   -0.305123
C      4.799554   -0.384265    1.016293
C     -3.083441    0.487681   -0.869182
C      3.465596   -1.162154    0.997749
C      5.918424   -1.246230    0.530009
C     -5.742074    1.653119   -1.061970
C     -2.015777    0.147104   -0.200495
C      2.412255   -0.205351    1.498442
C      7.263996   -0.622770    0.514893
C     -6.869310    2.431721   -0.462507
C     -1.828568   -1.056389    0.571422
C      1.059240   -0.861328    1.526462
C      7.443053    0.589087   -0.318887
C     -8.174966    1.731834   -0.417768
C     -0.696759   -1.958457    0.122418
C      0.659441   -1.303831    0.153500
C      6.631183    1.753336    0.024572
O     -8.254612    0.581781    0.316292
O     -0.709004   -3.037187    1.035436
O      0.764054   -0.247381   -0.721460
O      6.066910    2.384879   -0.926995
O      6.418069    2.236993    1.300675
H     -4.588386   -0.609608   -1.959293
H     -4.190115   -1.301026   -0.367371
H     -6.331012   -0.297919   -0.292603
H     -5.245723    0.678114    0.747121
H      4.976461   -0.092758    2.048443
H      4.599414    0.461189    0.308498
H     -3.090729    1.460507   -1.436773
H      3.231371   -1.402881   -0.067166
H      3.547583   -2.059841    1.615197
H      5.930453   -2.146222    1.217253
H      5.653063   -1.675364   -0.463304
H     -5.939460    1.474625   -2.147197
H     -4.829598    2.319429   -0.952138
H     -1.184880    0.874795   -0.239421
H      2.688331    0.156840    2.521113
H      2.362209    0.715184    0.880129
H      7.652823   -0.470225    1.552776
H      7.968587   -1.406149    0.094685
H     -6.550467    2.794505    0.554052
H     -7.046859    3.397652   -1.020411
H     -1.544947   -0.808656    1.658756
H     -2.694992   -1.727389    0.708693
H      0.342168   -0.065514    1.873627
H      1.109360   -1.700649    2.252336
H      8.519381    0.909601   -0.193577
H      7.379788    0.319854   -1.398821
H     -8.950153    2.425221   -0.014863
H     -8.443950    1.452637   -1.474022
H     -0.857471   -2.383420   -0.875036
H      1.370311   -2.106273   -0.198710
H     -8.890004   -0.080261   -0.050426
H     -0.368902   -3.858097    0.636537
H      1.493781   -0.398041   -1.365274
H      6.138302    3.198458    1.406977
