45

C      3.750933    1.557585   -2.032288
C      4.508519    1.314123   -0.748396
C      4.746073   -0.159015   -0.599837
C      3.493534   -0.978271   -0.551432
C      2.667073   -0.525136    0.632634
C      1.363085   -1.324357    0.746308
C      0.655942   -0.752081    1.969168
C     -2.595660    0.468487   -0.435788
C     -3.970338   -0.075037   -0.326337
C     -0.647472   -1.416524    2.237708
C     -1.745363    0.190900    0.756822
C     -4.750820    0.320663   -1.584288
C     -1.552785   -1.254528    1.003323
C     -4.864059    1.785935   -1.676192
O     -2.735577   -1.952976    1.285104
O     -5.292443    2.341028   -2.748115
O     -4.538935    2.673936   -0.664518
H      4.270117    1.039984   -2.853251
H      3.665631    2.664387   -2.197095
H      2.726363    1.114403   -1.879909
H      5.489155    1.864536   -0.762445
H      3.945315    1.754303    0.096988
H      5.401555   -0.493855   -1.439031
H      5.282479   -0.328004    0.380584
H      2.946569   -0.873531   -1.504539
H      3.808428   -2.043562   -0.405340
H      3.229196   -0.686301    1.579362
H      2.394292    0.540821    0.531589
H      0.794094   -1.124026   -0.169807
H      1.550703   -2.394206    0.912267
H      0.639533    0.349399    1.949211
H      1.357824   -0.994586    2.833475
H     -2.133490   -0.045431   -1.347152
H     -2.600052    1.565837   -0.649475
H     -4.480409    0.309566    0.582893
H     -4.030994   -1.186782   -0.266884
H     -1.204224   -0.938267    3.080179
H     -0.530320   -2.479616    2.472231
H     -2.228550    0.707465    1.644022
H     -0.749768    0.719124    0.610423
H     -5.746628   -0.192558   -1.583022
H     -4.131485   -0.072306   -2.434779
H     -1.094385   -1.749154    0.143256
H     -2.560237   -2.930338    1.111323
H     -4.502417    3.687965   -0.832895
