27

C     -2.691318   -1.480935   -0.150263
C      0.292862    0.491986   -0.251213
C     -0.680158    0.360309    0.910781
C      1.631852    0.039349    0.241024
C     -2.080866    0.780603    0.522821
C      2.717528    0.117934   -0.800140
C     -2.647786   -0.041588   -0.595200
C      3.966948   -0.359336   -0.177429
O     -3.965988    0.380019   -0.796724
O      4.192732   -1.581960   -0.112464
O      4.869484    0.553058    0.324988
H     -2.640884   -1.532396    0.961253
H     -1.875453   -2.096578   -0.610253
H     -3.658240   -1.952983   -0.432364
H      0.365544    1.570215   -0.490270
H     -0.081481   -0.075341   -1.106234
H     -0.390744    1.065313    1.746471
H     -0.710228   -0.659305    1.324115
H      1.927303    0.608515    1.118194
H      1.537180   -1.035111    0.521021
H     -2.716155    0.610535    1.416123
H     -2.116228    1.864726    0.310104
H      2.867696    1.155925   -1.175141
H      2.451484   -0.477585   -1.711675
H     -2.064683    0.050587   -1.533006
H     -4.027039    1.325696   -0.540951
H      5.526637    0.318349    1.086432
