53

C     -5.270885    3.125453   -1.471418
C     -5.535737    2.033145   -0.442982
C     -5.573832    0.710757   -1.110610
C     -5.826589   -0.444743   -0.179880
C     -4.790885   -0.570840    0.893633
C     -3.453502   -0.770216    0.305940
C      3.433100    0.250736    1.109687
C     -2.686976   -1.802138    0.518098
C      2.050669   -0.123724    1.439223
C      3.683967    0.499809   -0.327589
C     -1.370470   -1.942011   -0.094330
C      1.539237   -1.409582    0.980282
C      5.144442    0.876153   -0.582694
C     -0.583970   -2.967853    0.111937
C      1.479274   -1.803320   -0.428718
C      5.491873    2.140634    0.193596
C      0.744449   -3.187997   -0.456725
C      6.941083    2.399386   -0.141062
O      0.725204   -3.667321   -1.761534
O      7.255778    2.471843   -1.351402
O      7.919741    2.554116    0.818430
H     -4.801164    4.025438   -0.993378
H     -4.432763    2.718399   -2.109216
H     -6.155332    3.393206   -2.044789
H     -6.485458    2.317125    0.050956
H     -4.731909    2.135835    0.317534
H     -4.648897    0.544527   -1.695295
H     -6.402062    0.729904   -1.851547
H     -5.762288   -1.382974   -0.797088
H     -6.847093   -0.442684    0.247457
H     -5.017984   -1.533579    1.438724
H     -4.837239    0.216859    1.665601
H     -3.071735    0.017374   -0.365646
H      3.706835    1.160223    1.738039
H      4.111048   -0.582985    1.471159
H     -3.067175   -2.583218    1.185357
H      1.394269    0.747546    1.111585
H      1.881608   -0.082893    2.584687
H      3.117272    1.451573   -0.608090
H      3.393235   -0.222307   -1.052036
H     -1.008892   -1.168081   -0.755387
H      2.077505   -2.281063    1.529587
H      0.478523   -1.573173    1.402380
H      5.753281    0.016163   -0.221472
H      5.290896    0.987888   -1.652107
H     -0.981166   -3.739553    0.791309
H      0.997579   -1.074149   -1.052775
H      2.479821   -2.102011   -0.871031
H      4.875893    2.994001   -0.130485
H      5.479959    1.975748    1.292376
H      1.367007   -3.894346    0.133093
H      1.620461   -3.531824   -2.183072
H      8.909995    2.390739    0.651614
