53

C      6.253263    2.579615    1.381149
C      6.065454    1.149931    0.892587
C      6.907913    0.970017   -0.352979
C      6.824335   -0.369571   -0.951123
C      5.562623   -0.893819   -1.532709
C      4.356558   -0.890999   -0.743545
C     -4.702749    0.700209   -0.408670
C      3.273099   -0.772339   -0.286224
C     -3.300911    0.340331   -0.548992
C     -5.792079   -0.161236   -0.929306
C      1.961462   -0.630091    0.270445
C     -2.701824   -0.817135    0.148091
C     -5.963861   -1.487099   -0.303777
C      0.995922   -0.012465   -0.466635
C     -1.246506   -0.981636   -0.299580
C     -6.171712   -1.323149    1.195151
C     -0.397045    0.196507   -0.005733
C     -7.358640   -0.536861    1.510845
O     -0.386688    0.632794    1.305433
O     -7.529849   -0.233195    2.745106
O     -8.321832   -0.085219    0.641376
H      6.622390    3.235319    0.564035
H      6.965778    2.559981    2.222401
H      5.235446    2.874742    1.749737
H      6.373627    0.400798    1.677932
H      4.999837    0.994728    0.742256
H      6.619119    1.791642   -1.027591
H      7.986212    1.141162   -0.017675
H      7.316153   -1.162672   -0.296605
H      7.561102   -0.361445   -1.839497
H      5.403445   -0.464695   -2.565824
H      5.832626   -1.990084   -1.846712
H      3.747121   -0.060097   -1.806764
H     -4.910122    1.776678   -0.780538
H     -4.891551    0.873392    0.731226
H      3.766899   -1.401811    0.861142
H     -2.721871    1.305215   -0.251716
H     -3.100777    0.225420   -1.680410
H     -5.566415   -0.333923   -2.065962
H     -6.763537    0.417030   -0.977355
H      1.629141   -0.951702    1.234023
H     -2.631130   -0.649581    1.268850
H     -3.159224   -1.772055   -0.040567
H     -6.928465   -1.981088   -0.732982
H     -5.143381   -2.164603   -0.493173
H      1.347369    0.322792   -1.443205
H     -1.324535   -1.136654   -1.418878
H     -0.811656   -1.899502    0.092828
H     -5.266987   -0.875887    1.657003
H     -6.314950   -2.342137    1.645841
H     -0.849641    1.068347   -0.589665
H     -0.066051    1.596198    1.251493
H     -9.282902    0.053091    0.915442
