53

C     -6.409738   -0.390191    2.584002
C     -5.067200   -0.928348    2.162692
C     -4.983689   -0.966784    0.639713
C     -5.161517    0.441147    0.117346
C     -5.089359    0.635974   -1.319257
C     -3.985727    0.502792   -2.186799
C      3.656453    1.034676   -0.974054
C     -2.731517    0.301308   -1.959733
C      2.662786    0.488139    0.018744
C      4.771986    0.061559   -1.226732
C     -2.169081    0.173134   -0.650749
C      1.564411    1.526450    0.197514
C      5.539086   -0.261190    0.026339
C     -0.847806   -0.049790   -0.565555
C      0.510542    1.081559    1.176500
C      6.657445   -1.216605   -0.232211
C     -0.174192   -0.196610    0.744154
C      7.682295   -0.746824   -1.166860
O     -1.101073   -0.540385    1.724501
O      7.711077    0.380185   -1.729245
O      8.756179   -1.593898   -1.501548
H     -6.371027    0.680181    2.893200
H     -6.809150   -0.948918    3.465056
H     -7.157086   -0.533643    1.774230
H     -4.842307   -1.892499    2.623328
H     -4.304656   -0.198526    2.559160
H     -4.166800   -1.542627    0.247487
H     -5.917645   -1.567851    0.354164
H     -6.266218    0.681807    0.399572
H     -4.641609    1.213653    0.755448
H     -5.624313    1.671054   -1.495181
H     -5.975830   -0.020279   -1.746342
H     -4.254883    0.589753   -3.314854
H      3.127778    1.210619   -1.953450
H      4.050258    2.022526   -0.661364
H     -2.032857    0.221275   -2.848296
H      3.189545    0.393810    1.014562
H      2.298870   -0.472041   -0.345181
H      5.441450    0.389100   -2.045669
H      4.315329   -0.915952   -1.578008
H     -2.641485    0.252640    0.298249
H      1.118098    1.743200   -0.784594
H      2.034076    2.437515    0.614129
H      4.807990   -0.722948    0.752978
H      5.911143    0.691880    0.467412
H     -0.276697   -0.121648   -1.466966
H      1.023365    0.915370    2.146002
H     -0.185652    1.908651    1.320700
H      6.233389   -2.170360   -0.632074
H      7.140847   -1.490400    0.730425
H      0.538010   -1.040464    0.660885
H     -0.797073   -1.295658    2.285364
H      9.243779   -1.451504   -2.369132
