33

C      4.228697    0.162443    0.977484
C      3.738577   -1.271388    0.895582
C      2.754326   -1.340580   -0.257355
C      1.605406   -0.382655    0.031477
C      0.611325   -0.429027   -1.096584
C     -0.514706    0.518304   -0.810585
C     -1.270457    0.212927    0.454832
C     -3.341290    1.250021   -0.543379
C     -2.365251    1.246329    0.600703
C     -3.986091   -0.093268   -0.625215
O     -3.084572    1.041179    1.769943
O     -3.363823   -1.070563   -1.156410
O     -5.247779   -0.300090   -0.134971
H      3.503549    0.742565    1.553565
H      4.279380    0.587138   -0.037159
H      5.246298    0.211762    1.447880
H      4.589903   -1.942677    0.715354
H      3.244644   -1.516882    1.842757
H      2.336113   -2.361931   -0.308159
H      3.235630   -1.118963   -1.210853
H      2.065196    0.634242    0.097477
H      1.159196   -0.586564    1.021319
H      1.150996   -0.072072   -2.006482
H      0.282889   -1.449401   -1.313864
H     -1.181165    0.533079   -1.703023
H     -0.134149    1.561057   -0.712692
H     -1.655739   -0.816814    0.499239
H     -0.579035    0.406209    1.322265
H     -2.929735    1.549278   -1.504075
H     -4.131717    1.990765   -0.265063
H     -1.883104    2.243185    0.691689
H     -2.499868    0.885670    2.556869
H     -5.863644   -1.023277   -0.508078
