51

C     -8.136968    0.609081   -0.363743
C      0.500556   -0.922614   -0.536732
C     -0.184765   -1.395568    0.708097
C      2.006667   -0.706913   -0.275703
C     -1.651430   -1.613054    0.458339
C      2.630153   -0.219611   -1.560373
C     -2.290779   -0.318218    0.016337
C      4.104702    0.017293   -1.405175
C     -3.800785   -0.533801   -0.233101
C      4.410315    1.031871   -0.356785
C     -4.346558    0.776136   -0.672589
C      5.881510    1.315761   -0.193965
C     -5.786776    0.839603   -1.008852
C      6.656296    0.084621    0.165776
C     -6.683276    0.476999    0.142463
C      8.087941    0.476801    0.313406
O     -6.465125   -0.868840    0.501055
O      8.429975    1.389708    1.091136
O      9.052754   -0.210225   -0.450062
H     -8.192316    0.062613   -1.312031
H     -8.763784    0.173456    0.426434
H     -8.297830    1.706496   -0.502765
H      0.456633   -1.649919   -1.366913
H      0.133011    0.040527   -0.904774
H      0.306030   -2.300946    1.119110
H     -0.115078   -0.548164    1.449576
H      2.100064    0.059314    0.532537
H      2.465710   -1.656841    0.026734
H     -1.755262   -2.368936   -0.338236
H     -2.147026   -1.986158    1.384664
H      2.141974    0.748538   -1.863624
H      2.421325   -0.984525   -2.338614
H     -1.859538    0.025320   -0.942434
H     -2.146485    0.499039    0.753574
H      4.523921    0.376969   -2.373964
H      4.602081   -0.949941   -1.131248
H     -4.212881   -0.842080    0.758114
H     -3.938320   -1.324603   -0.986699
H      3.974209    0.725597    0.613656
H      3.911519    1.988254   -0.649630
H     -3.736501    1.091608   -1.563836
H     -4.134612    1.537250    0.123788
H      6.021957    2.073848    0.610001
H      6.300747    1.724376   -1.145969
H     -5.988945    1.891731   -1.362536
H     -6.007883    0.213607   -1.914901
H      6.546327   -0.725555   -0.561066
H      6.283520   -0.293759    1.156878
H     -6.542826    1.148752    0.993558
H     -6.691552   -0.993032    1.448212
H      9.927405    0.308138   -0.602278
