85

C     -1.424899   -1.582935    2.974464
C     -5.627070   -3.611314    1.231484
C     -8.380919   -2.130782   -0.983844
C      7.189850   -2.746071    0.787524
C      4.121788    0.914238   -4.213558
C      7.513343   -1.479671    0.350731
C      5.851668   -3.016425    0.957896
C      4.727563    1.827570   -3.396266
C      3.526445   -0.217869   -3.681762
C      0.809430    2.486777    2.811747
C      6.533833   -0.513573    0.091595
C      4.871333   -2.064965    0.704189
C      4.728308    1.589885   -2.041894
C      3.547363   -0.423791   -2.301203
C     -4.401326    1.605082   -1.070421
C     -3.078838   -0.270746   -1.520025
C     -4.119998    2.123275   -2.312952
C     -2.783357    0.221971   -2.761415
C      2.804895   -0.249113    0.483285
C      4.502028    1.430787    0.813891
C      0.111103    1.150764    2.890967
C      1.203140    2.867295    1.453084
C      1.840956    0.875537    0.170435
C      3.486837    2.497634    0.857950
C     -2.656565   -1.418546    2.158077
C     -4.742911   -2.440869    1.298509
C     -3.892382    0.394672   -0.632003
C      5.215810   -0.808969    0.269024
C      4.149196    0.475048   -1.447938
C     -3.290546    1.420839   -3.188020
C     -2.974232   -0.319205    1.535413
C     -5.066992   -1.327445    0.665634
C     -4.200714   -0.156900    0.721296
C     -2.064830    0.853366    1.647668
C     -6.321530   -1.311232   -0.084809
C      4.155647    0.218854   -0.009834
N     -1.048353    1.008902    2.222011
N     -3.540534   -2.539928    2.063621
N      2.111166    2.115107    0.709401
N     -3.000515    1.954709   -4.470121
O     -2.532467    2.016021    0.904575
O     -6.596029   -0.205270   -0.684530
O     -3.509972    3.155173   -4.889182
O     -2.264664    1.320538   -5.242045
O     -7.204877   -2.339426   -0.201727
H     -0.520653   -1.519424    2.378387
H     -1.414577   -2.647828    3.375765
H     -1.472624   -0.976804    3.896030
H     -5.739797   -4.071539    0.245386
H     -5.164450   -4.425618    1.868899
H     -6.609861   -3.436419    1.719165
H     -9.225787   -2.615047   -0.460039
H     -8.609358   -1.043013   -1.062862
H     -8.302474   -2.612164   -1.986093
H      7.901800   -3.507482    0.992606
H      4.072778    1.019809   -5.310540
H      8.572998   -1.264445    0.215550
H      5.557158   -4.017805    1.305945
H      5.186813    2.704137   -3.824579
H      3.048620   -0.938118   -4.326462
H      0.082525    3.216802    3.280520
H      1.650304    2.442835    3.542698
H      6.861663    0.441595   -0.245235
H      3.850051   -2.349129    0.860327
H      5.214220    2.323886   -1.422361
H      3.057491   -1.340675   -1.970314
H     -5.051522    2.192499   -0.437375
H     -2.660527   -1.215971   -1.218706
H     -4.504797    3.063480   -2.674145
H     -2.132326   -0.318039   -3.464879
H      2.866008   -0.460801    1.567835
H      2.455271   -1.139889   -0.072741
H      5.484312    1.868037    0.528496
H      4.663274    1.048856    1.854422
H     -0.037884    0.895815    4.012749
H      0.943230    0.403215    2.636326
H      1.608400    3.932493    1.517812
H      0.284134    3.020534    0.789408
H      1.915676    0.986292   -0.976194
H      0.814097    0.521426    0.310619
H      3.551485    3.009128    1.870114
H      3.703603    3.311845    0.135421
H     -4.790757    0.660718    1.240059
H     -3.300332   -3.438967    2.560259
H     -2.085363    2.926774    1.106806
