82

C     -1.274114    3.014536    0.017465
C      1.187489   -3.406876    0.786364
C     -0.445818    3.862122   -0.903009
C      0.364941   -2.382836    0.062408
C     -2.738146    3.140035   -0.371664
C      2.489179   -2.909945    1.296956
C      0.935318    4.138110   -0.389220
C     -0.555482   -3.134321   -0.888948
C     -5.575854    0.735918    1.480568
C      6.101711   -1.022791   -0.296485
C     -3.338693    1.816819   -0.768306
C      2.719155   -1.444057    1.122478
C     -4.153525    1.211778    1.525615
C      4.981433   -1.814196    0.308604
C      1.532861    2.990445    0.373546
C     -1.959271   -3.235897   -0.355897
C      3.618968    2.755091   -0.978545
C     -4.297881   -2.864193   -1.097997
C     -5.692964   -0.701239    1.107092
C      6.072203    0.385814    0.175312
C      4.826232    2.311398   -0.235472
C     -4.664566   -2.659015    0.373520
C     -3.350249    0.811360    0.338292
C      3.657935   -1.204786   -0.058038
C      2.349084    2.089903   -0.557480
C     -2.872127   -2.389152   -1.249178
C     -3.811296   -0.515183   -0.264931
C      3.741719    0.245643   -0.422492
N     -4.392905   -1.304006    0.773930
N      4.769777    0.968626    0.257745
O      2.510591    0.829277   -0.044071
O     -2.707615   -1.083102   -0.867086
H     -1.112195    3.406172    1.053523
H     -0.906548    1.965410   -0.084721
H      1.376759   -4.241179    0.059302
H      0.540261   -3.867795    1.577885
H     -0.446303    3.374436   -1.909725
H     -0.965211    4.844911   -1.046333
H      0.939422   -1.678313   -0.543664
H     -0.274083   -1.876908    0.838212
H     -2.837478    3.809307   -1.267892
H     -3.281589    3.648165    0.439802
H      2.554018   -3.190403    2.387760
H      3.347750   -3.451702    0.824734
H      1.576934    4.347751   -1.286307
H      0.923215    5.090192    0.185900
H     -0.560040   -2.664795   -1.908170
H     -0.172824   -4.173240   -1.062904
H     -6.232734    1.385611    0.846406
H     -5.984553    0.842900    2.523033
H      7.059496   -1.484369    0.084664
H      6.139377   -1.145267   -1.395117
H     -4.320260    2.006985   -1.217754
H     -2.692461    1.406152   -1.581556
H      1.823302   -0.829398    1.087206
H      3.303528   -1.095360    2.024220
H     -3.691675    0.759864    2.441197
H     -4.159218    2.294082    1.687776
H      5.131489   -1.897342    1.411258
H      5.073614   -2.860088   -0.092901
H      2.241275    3.426244    1.123027
H      0.801260    2.407147    0.953292
H     -2.302355   -4.285837   -0.302405
H     -2.044791   -2.835943    0.684842
H      3.774884    2.690097   -2.091528
H      3.493490    3.858278   -0.787406
H     -4.948674   -2.243076   -1.735213
H     -4.338875   -3.927266   -1.356968
H     -6.227035   -1.306549    1.865565
H     -6.299755   -0.779750    0.172530
H      6.552705    0.453603    1.182335
H      6.733381    0.989528   -0.499815
H      5.703670    2.396882   -0.941705
H      5.082293    3.017724    0.599184
H     -4.033064   -3.347985    0.973939
H     -5.736366   -2.938903    0.454860
H     -2.292976    0.673805    0.671657
H      3.299777   -1.748230   -0.972479
H      1.711041    1.987758   -1.483523
H     -2.543379   -2.559357   -2.290443
H     -4.612823   -0.298234   -1.011324
H      3.806232    0.409006   -1.535334
