67

C     -0.118518   -2.152569   -1.708028
C      4.892663    2.895674   -0.648469
C      5.802991    2.931978    0.383133
C     -7.246488    0.737694    1.169720
C      4.610107    1.657852   -1.176184
C      6.394217    1.775791    0.853311
C     -3.299237   -0.177576    2.999044
C      2.578473   -0.947785   -2.027154
C     -6.304594   -0.387032    0.937207
C     -4.702299    0.256989    2.769781
C     -6.923066    2.026571    0.524030
C      4.060424   -1.175898   -2.235935
C      0.339477   -0.078966   -0.435816
C     -1.382930   -0.114777    1.295251
C     -2.048701   -0.006898   -1.006342
C      7.619752   -0.615598    1.822746
C      0.729469   -1.518260   -0.613718
C     -1.099059   -0.065551   -0.040204
C     -2.714156   -0.102418    1.637557
C     -3.403405    0.005052   -0.635749
C      5.165017    0.468161   -0.751685
C      6.089594    0.564806    0.305666
C     -3.743559   -0.042674    0.704780
C     -4.358572    0.067364   -1.697076
C      8.026259   -2.058198    2.045981
F      6.891286   -2.766736    2.381833
F      9.050210   -2.192885    2.929383
F      8.439848   -2.556612    0.815902
N     -5.607406    0.121887   -1.649596
N      2.132460   -1.623761   -0.848687
N     -4.983473   -0.064783    1.353191
O     -7.914185    2.963602    0.927536
O     -3.836454    0.066404   -3.033766
O      4.901998   -0.763385   -1.252859
O      6.680825   -0.599526    0.774136
H      0.329655   -3.164579   -1.912878
H     -0.071679   -1.566957   -2.642182
H     -1.165062   -2.266638   -1.383235
H      4.428706    3.810615   -1.016732
H      6.073020    3.869419    0.846067
H     -8.268518    0.359171    0.834243
H     -7.394288    0.902828    2.283876
H      3.904322    1.638029   -1.996067
H      7.120502    1.866402    1.686159
H     -2.727144    0.477218    3.684222
H     -3.208084   -1.248350    3.314650
H      2.242649    0.073225   -2.131620
H      2.088960   -1.504929   -2.891857
H     -6.625678   -1.147951    1.805464
H     -6.474987   -1.051945    0.107256
H     -5.402572   -0.229150    3.446135
H     -4.765784    1.363489    2.918372
H     -7.010129    2.039615   -0.593336
H     -5.923491    2.392334    0.788645
H      4.306565   -0.589102   -3.169342
H      4.143261   -2.281469   -2.473538
H      0.424272    0.418278   -1.446335
H      0.964776    0.433022    0.292318
H     -0.583805   -0.160356    2.025389
H     -1.745127    0.031237   -2.050445
H      8.557801   -0.075423    1.554393
H      7.241608   -0.139583    2.749829
H      0.520842   -2.095792    0.331680
H     -6.267631    0.166107   -2.446349
H      2.482806   -2.587875   -0.756705
H     -7.440844    3.780076    1.195760
H     -4.473893   -0.038898   -3.830866
