62

C     -6.527184   -2.422311    0.421167
C     -5.367926    3.708444   -0.854619
C     10.416490    0.166157    0.101566
C     -5.496928   -1.957910    1.448477
C     -5.186943    2.214677   -1.025022
C      1.085927    1.384313    0.316677
C     -0.261604    1.678599    0.053793
C     -1.608261   -1.669023   -0.761454
C     -2.871403   -1.486041    0.124169
C      7.705712    0.408701   -0.374816
C      7.416513   -1.920905   -0.532721
C      6.379575    0.611156   -0.601762
C      6.051250   -1.726325   -0.767243
C     -5.263480   -0.509375    1.408251
C     -5.028786    1.515752    0.294115
C      0.715289   -0.955494   -0.127118
C     -2.538383    0.842163   -0.612375
C      2.972939   -0.221091    0.501683
C      1.555500    0.077199    0.223634
C     -0.610125   -0.638270   -0.381840
C     -1.088501    0.640641   -0.295444
C     -3.334901   -0.091015    0.203122
C      8.263973   -0.856986   -0.332823
C      5.550144   -0.462109   -0.798372
N     -4.794534    0.065274    0.143345
O      3.286288   -1.199475   -1.967508
O      3.663446    1.237326   -1.599963
O      9.615794   -0.998364   -0.097204
S      3.854257   -0.142902   -1.058767
H     -6.417791   -3.521714    0.343024
H     -7.562893   -2.210881    0.761459
H     -6.295691   -2.001902   -0.579264
H     -5.813770    4.012667    0.089108
H     -4.329241    4.142223   -0.970001
H     -5.910338    4.094345   -1.745807
H     11.449987   -0.076614    0.382365
H      9.954807    0.759334    0.944117
H     10.342687    0.811849   -0.806334
H     -6.065555   -2.142444    2.445014
H     -4.662634   -2.650737    1.532849
H     -4.478819    2.014278   -1.808744
H     -6.195046    1.883562   -1.494969
H      1.770617    2.150824    0.592679
H     -0.633031    2.698475    0.128442
H     -1.234727   -2.684893   -0.653842
H     -1.899218   -1.487114   -1.813010
H     -2.557400   -1.910750    1.093583
H     -3.629210   -2.092745   -0.427736
H      8.346211    1.271095   -0.223243
H      7.855191   -2.925099   -0.500064
H      6.000020    1.623484   -0.623481
H      5.435581   -2.604086   -0.917188
H     -6.203395    0.028849    1.735693
H     -4.524879   -0.212552    2.213013
H     -6.017029    1.667858    0.826407
H     -4.283457    1.989436    0.958962
H      1.068663   -1.971155   -0.202551
H     -2.787810    1.923221   -0.421357
H     -2.633404    0.606755   -1.686849
H      3.379675    0.532880    1.206299
H      3.107752   -1.229602    0.943474
H     -3.129991    0.218347    1.310186
