53

C      5.499587    0.140073    0.344215
C      4.894677   -0.447556   -0.902116
C      4.426978    1.199057    0.306904
C     -1.902790    3.050648    0.104394
C     -3.263723    3.071469    0.334887
C     -2.032621   -1.821422   -1.892615
C     -1.144771   -0.606117   -1.799707
C     -0.614677   -0.750796    1.887092
C      0.844960   -0.873828    1.764190
C      0.196307    1.707492   -0.062634
C      2.751601   -0.693592    0.364849
C      3.574990    0.206930   -0.506777
C     -1.244763    1.851448    0.185144
C     -4.015396    1.941190    0.646190
C     -2.924161   -2.070106   -0.734801
C      0.656743    0.320097   -0.314216
C     -1.961842    0.750316    0.487350
C     -3.296718    0.756050    0.714976
C     -2.594498   -1.442792    0.543358
C     -1.369909   -0.606237    0.598461
C     -0.393072   -0.732157   -0.507991
N      1.498002   -0.091816    0.753397
O     -5.382328    1.978154    0.874143
O     -4.227822   -1.676776   -1.111837
O      0.210896   -1.976016   -0.463533
O     -3.670634   -0.575251    0.990583
H      5.333542   -0.528844    1.226455
H      6.520377    0.486572    0.185267
H      4.843033   -1.545509   -0.945300
H      5.292964   -0.052083   -1.857161
H      4.738909    2.071752   -0.295105
H      3.972616    1.477641    1.267322
H     -1.367416    3.985737   -0.139007
H     -3.774598    4.045777    0.265734
H     -2.605048   -1.796903   -2.865844
H     -1.322261   -2.693236   -2.015494
H     -0.404810   -0.730238   -2.646060
H     -1.664392    0.347934   -1.917262
H     -1.026971   -1.658160    2.387065
H     -0.904910    0.102912    2.536926
H      1.156644   -1.923481    1.630992
H      1.315298   -0.562700    2.742559
H      0.717622    2.164529    0.822716
H      0.455471    2.414178   -0.908636
H      2.574697   -1.676326   -0.170646
H      3.333651   -0.962244    1.296751
H      3.103026    0.724566   -1.338802
H     -3.024946   -3.188941   -0.589848
H      1.251793    0.339159   -1.268921
H     -2.541087   -2.197168    1.359894
H     -5.846179    2.873181    0.807995
H     -4.274616   -1.444773   -2.070031
H     -0.367421   -2.681791   -0.105461
