65

C     -8.724137    1.652317    0.087691
C     -7.928581    0.391434   -0.120628
C     -6.999346    0.200730    1.055494
C     -6.031902    1.331604    1.222947
C     -5.156633    1.532787    0.015125
C      5.711337   -0.338084    0.770124
C      6.022996   -0.024230   -0.625829
C     -4.328882    0.349084   -0.341113
C      4.498816   -0.409840    1.234940
C      6.874058    1.258713   -0.595751
C     -3.393329    0.001691    0.797729
C      3.284284   -0.192561    0.445639
C      5.998039    2.314551    0.064999
C     -1.309191   -1.078204   -0.292063
C     -0.076922   -1.337374    0.533464
C      1.869065   -3.394058   -0.738008
C     -2.561444   -1.191486    0.462644
C      2.406725   -1.451108    0.501395
C      1.156721   -1.197820   -0.321754
C      3.069337   -2.657763   -0.095621
C      1.248692   -2.177420   -1.442552
C      6.692404    3.612182    0.164825
O     -2.943062   -2.285666    0.829996
O      3.899490   -2.355105   -1.172816
O      2.197681   -1.717461   -2.355665
O      7.868365    3.734080   -0.265233
O      6.009881    4.671386    0.740407
H     -9.527506    1.685909   -0.689308
H     -8.066589    2.519922    0.022951
H     -9.161682    1.625436    1.117072
H     -7.257182    0.499422   -1.011454
H     -8.561832   -0.489349   -0.278627
H     -7.611747    0.107474    1.976567
H     -6.504828   -0.781698    0.919752
H     -6.608299    2.260748    1.384339
H     -5.460589    1.176651    2.164522
H     -4.427667    2.348280    0.302098
H     -5.751204    1.930569   -0.804826
H      6.598055   -0.512815    1.418672
H      5.207094    0.184769   -1.298251
H      6.708455   -0.826017   -0.996596
H     -4.917344   -0.538461   -0.646233
H     -3.729658    0.641387   -1.248578
H      4.373400   -0.649995    2.294903
H      7.092218    1.504189   -1.644473
H      7.778834    1.052525    0.008984
H     -2.701944    0.818408    1.032824
H     -4.023739   -0.178898    1.691179
H      3.404727    0.042517   -0.606770
H      2.669049    0.591000    0.981520
H      5.664719    1.930641    1.045488
H      5.080321    2.382810   -0.569540
H     -1.406056   -1.809447   -1.149050
H     -1.182129   -0.039330   -0.720818
H     -0.030836   -0.533950    1.298927
H     -0.102452   -2.289699    1.075151
H      2.191295   -4.157955   -1.443087
H      1.244226   -3.724592    0.095775
H      2.143638   -1.615439    1.567818
H      1.173761   -0.175853   -0.757569
H      3.595759   -3.297774    0.623103
H      0.327255   -2.434345   -1.953983
H      4.074111   -3.183560   -1.683382
H      1.872881   -0.842455   -2.697134
H      6.479025    5.536596    0.951274
