26

C     -0.028895    2.364577   -0.725474
C      1.225952   -1.474860    0.669875
C     -0.134336   -1.213346    0.456314
C      1.671579    0.721084   -0.023877
C      0.330644    0.987603   -0.237386
C      2.138171   -0.491471    0.425158
C     -0.580609    0.008095    0.005668
C     -2.016274    0.221653   -0.190693
C      3.571037   -0.735313    0.639425
C     -2.710157   -0.849743   -0.915755
N     -2.319985    1.489183   -0.860601
O      3.990968   -1.958745    1.087857
O      4.423209    0.168939    0.415599
O     -3.322957   -0.606221   -1.977976
O     -2.706331   -2.139831   -0.448904
H      0.915692    2.995408   -0.730512
H     -0.371014    2.360739   -1.771170
H     -0.686033    2.896926   -0.023797
H      1.570477   -2.436714    1.023797
H     -0.781148   -2.048484    0.685320
H      2.419476    1.493681   -0.213240
H     -2.475359    0.265350    0.846467
H     -3.201802    1.892152   -0.455421
H     -2.547415    1.286306   -1.862554
H      4.909554   -2.309085    0.779471
H     -3.284446   -2.887882   -0.797031
