66

C     -6.978921   -0.625080    2.209461
C     -6.314909   -1.479281    1.162649
C      6.887328    0.899208   -0.241427
C      6.316700    0.180683    0.946548
C      5.965989    1.017622   -1.409977
C      4.835289    0.426167    1.114416
C      5.307060   -0.339777   -1.625519
C     -5.832200    1.398804   -2.233440
C     -4.537786    1.851456   -2.402591
C      3.966234   -0.711159    0.758125
C      3.831952   -0.240049   -1.713641
C     -6.111738    0.506256   -1.220701
C     -3.576391    1.379122   -1.536163
C     -1.003336    1.357488    0.263431
C      0.252525    1.447558    1.159660
C      2.036385    0.575605   -0.185116
C      0.512746   -0.929802    0.979121
C     -1.303350   -2.385807    0.122949
C      3.069914   -0.486856   -0.431494
C     -0.758816   -1.011560    0.125431
C     -1.664379    0.072194    0.641687
C     -5.140310    0.046061   -0.365780
C     -3.829769    0.486996   -0.516190
C     -3.869705   -0.878999    1.153368
N      1.131910    0.341596    0.886563
N     -5.103792   -0.793991    0.679013
N     -3.044355   -0.076780    0.412527
O     -2.452184   -2.442936   -0.647669
O     -3.516862   -1.591350    2.136585
H     -6.797583   -1.112554    3.200287
H     -8.083081   -0.543600    2.024072
H     -6.583021    0.408590    2.189545
H     -5.985024   -2.469709    1.532900
H     -6.993277   -1.653122    0.306214
H      7.790517    0.315747   -0.575208
H      7.278914    1.898371    0.056095
H      6.889817    0.568890    1.841035
H      6.542975   -0.916858    0.939765
H      5.187225    1.795924   -1.305938
H      6.585617    1.336283   -2.281135
H      4.612536    1.375253    0.588097
H      4.679272    0.673903    2.206576
H      5.680222   -0.683051   -2.640337
H      5.709612   -1.104861   -0.938995
H     -6.597358    1.773113   -2.922461
H     -4.338090    2.552053   -3.203935
H      3.280652   -0.961575    1.622346
H      4.530406   -1.631790    0.592544
H      3.469728   -0.866356   -2.552653
H      3.610295    0.817954   -2.052946
H     -7.115381    0.141009   -1.073036
H     -2.592242    1.737774   -1.674871
H     -0.503785    1.273510   -0.752056
H     -1.554828    2.268156    0.427546
H      0.761967    2.378036    0.858436
H     -0.058480    1.548558    2.208135
H      1.413334    0.611417   -1.129788
H      2.440127    1.592172   -0.082151
H      1.208181   -1.737185    0.808919
H      0.140103   -1.029922    2.042224
H     -0.548979   -3.016845   -0.452475
H     -1.361766   -2.876425    1.096882
H      2.527637   -1.435435   -0.604447
H     -0.438174   -0.715013   -0.903070
H     -1.538601    0.013912    1.775773
H     -2.324691   -1.807624   -1.393714
