47

C     -4.227414   -2.109461    2.161295
C     -1.769138    3.152280   -0.932102
C     -0.046197   -1.466587   -2.384829
C      4.881456    1.907476    1.855562
C     -2.978965   -2.054870    1.266618
C     -1.678140    1.871845   -0.081594
C      3.801637    0.018758   -1.903771
C      2.581186   -0.613140   -2.001568
C      4.198455    0.635155   -0.736492
C      1.208283    0.066155    1.365435
C     -0.009862   -0.440496    1.273411
C     -2.909120   -0.765965    0.524179
C     -1.854484    0.666371   -0.997917
C      0.450400   -1.402084   -0.985306
C      1.731049   -0.627248   -0.893147
C      2.150175   -0.005797    0.246359
C     -0.551299   -1.112158    0.065245
C      3.379030    0.636767    0.368314
N     -1.804108   -0.590922   -0.355379
O      3.715181    1.228824    1.549737
H     -5.057613   -1.514971    1.701686
H     -3.978543   -1.774951    3.174262
H     -4.536743   -3.177003    2.238038
H     -1.374070    2.901156   -1.954187
H     -1.102647    3.938826   -0.547264
H     -2.809161    3.529717   -0.977992
H      0.274943   -0.619370   -3.030029
H     -1.151747   -1.528243   -2.381509
H      0.283198   -2.439006   -2.841791
H      5.797006    1.306474    1.879179
H      4.759897    2.348892    2.890496
H      4.976281    2.773872    1.157721
H     -3.006356   -2.947537    0.611902
H     -2.135192   -2.214288    1.987805
H     -2.493836    1.958148    0.646451
H     -0.661205    1.893942    0.342925
H      4.482257    0.040703   -2.762286
H      2.272797   -1.089934   -2.900641
H      5.166770    1.109661   -0.727319
H      1.543465    0.547710    2.271477
H     -0.638705   -0.350185    2.146954
H     -2.858650    0.065796    1.284156
H     -3.870191   -0.654108   -0.048038
H     -1.236759    0.757858   -1.896170
H     -2.918173    0.781145   -1.386091
H      0.837032   -2.477941   -0.769769
H     -0.832176   -2.161267    0.485982
