66

C      6.817983   -0.225641    2.054655
C      6.216440    1.071845    1.601672
C     -6.638481    0.061932    0.932708
C     -5.969108   -1.270058    1.272459
C     -6.552899    0.335988   -0.549002
C     -4.654193   -1.020216    1.959782
C     -5.357144    1.123434   -0.966080
C      5.880026    0.620375   -2.821547
C      4.582143    0.474554   -3.258420
C     -3.454162   -1.190656    1.024793
C     -4.162909    0.969237   -0.058157
C      6.143124    0.770348   -1.485892
C      3.512554    0.473790   -2.380629
C      0.799567    1.460987   -0.830680
C     -0.261876    0.621556   -1.500814
C     -2.336565   -0.367459   -1.036439
C     -0.466414   -0.766175    0.392981
C      1.677179   -1.740733    1.021127
C     -3.588899   -0.428808   -0.223467
C      1.014551   -0.840203   -0.013390
C      1.547132    0.559730    0.120913
C      5.070658    0.769338   -0.611562
C      3.767295    0.624491   -1.034320
C      3.794147    0.830046    1.133077
N     -1.187054    0.218679   -0.413215
N      5.074334    0.895569    0.737630
N      2.966185    0.664395    0.069834
O      3.039037   -1.852925    0.708968
O      3.374887    0.907260    2.313976
H      7.916764   -0.162907    1.812160
H      6.784050   -0.364465    3.152563
H      6.361708   -1.124348    1.590787
H      5.839771    1.576548    2.544516
H      6.969004    1.784524    1.189495
H     -6.270027    0.879494    1.568780
H     -7.727466   -0.055773    1.189115
H     -6.651918   -1.869648    1.949010
H     -5.812664   -1.897284    0.374095
H     -7.471078    0.875017   -0.883210
H     -6.608690   -0.655615   -1.088509
H     -4.542473   -1.812102    2.734832
H     -4.598931   -0.055439    2.498888
H     -5.026252    0.684462   -1.956250
H     -5.602996    2.171441   -1.175393
H      6.723965    0.624598   -3.490294
H      4.370923    0.355327   -4.315934
H     -3.457232   -2.290277    0.771918
H     -2.592089   -1.006652    1.661686
H     -3.408765    1.719115   -0.441660
H     -4.374974    1.258945    0.964321
H      7.145505    0.891270   -1.071142
H      2.485657    0.348354   -2.742740
H      1.430337    2.033062   -1.520887
H      0.212101    2.261492   -0.275290
H      0.068373   -0.183685   -2.123253
H     -0.877658    1.297902   -2.162957
H     -2.037416   -1.397810   -1.412350
H     -2.512845    0.183870   -2.014019
H     -0.884894   -1.773248    0.348005
H     -0.428020   -0.370165    1.431291
H      1.230470   -2.750984    0.882719
H      1.511633   -1.403281    2.049638
H     -4.332902   -1.013076   -0.868200
H      1.182501   -1.316454   -0.974698
H      1.219930    0.897815    1.152661
H      3.119062   -2.090701   -0.248341
