59

C     -6.437946   -2.549051    0.573933
C     -6.791885   -1.151398    0.955623
C     -6.868106   -0.282726   -0.234025
C     -5.750263   -0.170230   -1.155070
C      4.974200   -0.908965   -1.484075
C      4.944317   -1.713248   -0.227714
C      4.803503    0.585369   -1.185873
C     -4.459982    0.331256   -0.740601
C      6.015396   -1.361938    0.770353
C     -2.328202    0.549529    0.288395
C     -1.235196    0.350267   -0.406593
C      3.361921    1.331527    0.691413
C      2.192270    0.469706   -1.093823
C      1.327365    2.759120    0.752547
C      3.516437    0.804786   -0.517074
C      1.938982    1.403377    1.045905
C     -3.556316   -0.345500    0.211975
C     -0.031704    1.202527   -0.350760
C      1.208474    0.494273    0.074974
C     -0.145699    2.355016    0.588778
C      7.361038   -1.575548    0.232651
O     -3.991991   -0.619661    1.478404
O     -0.876352    3.364656   -0.010075
O      7.513812   -2.038838   -0.920022
O      8.515568   -1.277743    0.967509
H     -5.419194   -2.869503    0.835759
H     -6.534422   -2.676929   -0.542759
H     -7.127456   -3.317159    1.011545
H     -6.349380   -0.703506    1.819417
H     -7.924877   -1.249117    1.318068
H     -7.840506   -0.492268   -0.822050
H     -7.118141    0.769237    0.185515
H     -6.119280    0.574379   -1.979565
H     -5.644552   -1.127796   -1.797402
H      5.838622   -1.071875   -2.136546
H      4.031043   -1.170837   -2.050785
H      3.967006   -1.513728    0.297993
H      5.049538   -2.809833   -0.425435
H      4.872348    1.085846   -2.186154
H      5.643411    0.969376   -0.590742
H     -3.785954    0.565098   -1.656857
H     -4.546538    1.416255   -0.326110
H      5.863100   -1.941516    1.721757
H      5.927119   -0.291242    1.095067
H     -2.369952    1.393836    0.956101
H     -1.215980   -0.506505   -1.072632
H      4.181652    1.658836    1.318690
H      1.917993    1.275108   -1.788556
H      2.142133   -0.530047   -1.544014
H      1.442897    3.464649    1.590140
H      1.714196    3.126015   -0.200832
H      1.740291    1.122963    2.099812
H     -3.268064   -1.323701   -0.243949
H      0.094284    1.638347   -1.386092
H      1.046781   -0.514413    0.494165
H     -0.494887    2.093149    1.594585
H     -3.447517   -1.348386    1.847650
H     -0.796841    3.265496   -0.994668
H      9.331486   -0.966794    0.451826
