67

C      7.668880   -1.212604    1.073871
C      3.003733   -1.127698   -1.492492
C      2.415974    1.094518   -2.182862
C      6.973903   -0.137421    0.314588
C      6.151211    0.802408    1.207821
C      5.531467    1.846485    0.309556
C      4.533599    1.283978   -0.678561
C     -4.835822   -2.575662   -0.107909
C     -5.308941   -1.163212    0.051509
C     -5.119865    1.204913    0.050134
C      0.560573    0.311671    0.693236
C     -4.309538    2.407404    0.319808
C     -0.792078    0.239309    1.074382
C      3.281705    0.785517    0.022275
C     -6.027472   -3.539371    0.168984
C      0.012839   -0.513325   -1.413567
C     -3.323018    0.703620    1.821175
C     -4.291001   -0.084627   -0.191639
C      0.985697   -0.060060   -0.557465
C     -3.239969    2.117308    1.356309
C     -1.768110   -0.206640    0.217157
C     -3.135720   -0.236739    0.659340
C     -1.310134   -0.582870   -1.036767
C      2.367714    0.133907   -0.955396
O     -7.050712   -3.284001   -0.728085
O     -2.064889    2.562082    0.825828
O     -2.238129   -1.047394   -1.928729
H      7.744549   -1.001233    2.143717
H      7.176979   -2.193008    0.872571
H      8.715731   -1.285696    0.658256
H      3.606594   -1.590645   -0.656205
H      2.255435   -1.912110   -1.766292
H      3.614586   -0.980123   -2.400881
H      2.253130    2.116912   -1.827285
H      1.603832    0.836792   -2.892485
H      3.415139    0.995458   -2.616858
H      6.305999   -0.569916   -0.433371
H      7.751503    0.531011   -0.180722
H      6.839085    1.283947    1.905647
H      5.405002    0.221164    1.783212
H      6.342564    2.391028   -0.169471
H      5.003051    2.549438    1.027211
H      5.005375    0.585278   -1.336105
H      4.183513    2.204607   -1.278411
H     -4.440652   -2.796948   -1.105172
H     -4.078576   -2.869899    0.629028
H     -5.790350   -1.048331    1.066368
H     -6.191691   -1.062587   -0.642200
H     -5.841489    1.028933    0.882667
H     -5.786102    1.394107   -0.838156
H      1.264975    0.670454    1.459846
H     -3.883984    2.844993   -0.628549
H     -4.956908    3.184530    0.748499
H     -0.962271    0.549024    2.112047
H      3.597607    0.157204    0.861966
H      2.738578    1.670029    0.477057
H     -5.670200   -4.561828    0.090947
H     -6.440279   -3.338546    1.174696
H      0.261839   -0.837770   -2.442220
H     -4.402492    0.598983    2.202123
H     -2.659191    0.547482    2.673752
H     -4.174185   -0.062489   -1.287595
H     -3.420873    2.749421    2.278782
H     -3.208615   -1.264913    1.188672
H     -7.716785   -2.631871   -0.416745
H     -2.060598    2.517823   -0.188929
H     -2.071721   -1.342202   -2.869102
