70

C     -2.779699    1.984539    0.918152
C     -3.784818    2.671038    1.391106
C      9.322995    2.084257    0.275950
C      9.067901    0.716127    0.307883
C      8.250286    2.929431    0.357591
C     -2.180787    0.834055    1.571641
C     -4.439357    2.345906    2.670913
C      7.790008    0.205965    0.417114
C      6.980539    2.414178    0.465598
C     -2.297037   -0.442342    0.735395
C     -5.911171    2.048533    2.286257
C      3.880834   -1.169726    1.339489
C      2.982739    0.676336    0.138253
C      5.158595   -0.679386    1.259107
C      4.294868    1.164662    0.062937
C     -3.325763   -2.823183   -0.772775
C     -3.019000   -2.630251   -3.073075
C     -3.510301   -4.274828   -1.275522
C     -2.502927   -4.043190   -3.277356
C      0.129838    0.192193   -1.975151
C      1.427148   -1.100106    0.918572
C      2.765677   -0.501882    0.781108
C      6.724198    1.075725    0.497970
C      5.374441    0.517098    0.605234
C     -1.642779   -0.242308   -0.557501
C     -0.826988   -0.750172   -2.621907
C     -0.124749    0.069333   -0.451237
C     -6.518521    3.229835    1.663218
C     -1.568440   -1.404362   -1.511155
N     -2.702437   -2.095582   -1.820003
O     -0.867025   -0.842757   -3.818378
O     -6.371687    4.355682    2.263959
O     -7.240194    3.230276    0.473257
O     -2.435012   -4.676802   -2.049840
O      0.515908   -1.019445   -0.034667
H     -2.385952    2.349146   -0.053156
H     -4.193043    3.550250    0.837572
H     10.314269    2.461247    0.192223
H      9.922498    0.067779    0.240812
H      8.362629    4.024627    0.339907
H     -1.076092    1.078004    1.696125
H     -2.512057    0.574458    2.572570
H     -4.532956    3.241485    3.347495
H     -4.107680    1.456900    3.183396
H      7.631913   -0.870862    0.435313
H      6.150818    3.115313    0.528038
H     -1.741001   -1.215930    1.320280
H     -3.351468   -0.644491    0.597662
H     -6.462292    1.843124    3.232744
H     -5.897380    1.176917    1.626356
H      3.710624   -2.122033    1.856256
H      2.196992    1.273475   -0.329625
H      5.999852   -1.204363    1.692432
H      4.418447    2.118130   -0.466425
H     -2.741372   -2.906797    0.167010
H     -4.347125   -2.445895   -0.510439
H     -2.861653   -1.984076   -3.960174
H     -4.154601   -2.770708   -3.073434
H     -4.436045   -4.390183   -1.853847
H     -3.562290   -4.957807   -0.397457
H     -1.550202   -4.052717   -3.846449
H     -3.217963   -4.643655   -3.896908
H     -0.103301    1.247724   -2.217716
H      1.176870   -0.059010   -2.201375
H      0.961669   -0.723384    1.911895
H      1.607750   -2.198929    1.206081
H     -2.038289    0.654905   -1.116263
H      0.027451    1.032473    0.030807
H     -0.779421   -2.089578   -1.039590
H     -7.046880    3.965612   -0.214254
