39

C      0.291133   -3.191612    0.099838
C     -0.853140   -1.111829    1.826917
C      3.574198    2.410477   -0.119254
C     -4.021078    2.317264    0.397686
C      2.496623    2.264644   -0.952074
C      4.075275    1.299934    0.504670
C     -4.229143    1.002660    0.751109
C     -2.849104    2.604534   -0.264947
C      1.910921    1.013712   -1.169010
C      3.518216    0.077123    0.305212
C     -3.308640    0.022391    0.455453
C     -1.926890    1.636558   -0.563566
C      1.842159   -1.452464   -0.711941
C     -1.163549   -0.755242   -0.511491
C      0.826609   -1.817803    0.312878
C      2.420648   -0.097528   -0.537332
C     -2.129267    0.316703   -0.212136
N     -0.182489   -0.811863    0.559645
H      1.071180   -3.935848    0.439461
H      0.158087   -3.350709   -0.992318
H     -0.606858   -3.443185    0.672078
H     -1.369481   -0.202496    2.196664
H     -0.050989   -1.358055    2.552318
H     -1.533226   -1.947422    1.650772
H      4.018104    3.400355    0.037090
H     -4.759242    3.082595    0.639618
H      2.077804    3.126732   -1.461523
H      4.937783    1.418875    1.169909
H     -5.153459    0.729977    1.282430
H     -2.671286    3.632123   -0.549689
H      1.062827    0.933515   -1.841082
H      3.920553   -0.798454    0.801591
H     -3.530383   -0.997525    0.758901
H     -0.995008    1.878291   -1.092139
H      2.684915   -2.184588   -0.615867
H      1.468115   -1.530221   -1.755948
H     -0.675508   -0.603483   -1.465877
H     -1.745597   -1.700523   -0.580533
H      1.399186   -1.877613    1.298802
