45

C     -5.685915   -0.870837   -1.252969
C     -5.282759    0.391521   -0.567628
C     -4.608421    0.087421    0.751771
C     -3.390849   -0.764854    0.512978
C     -2.396710   -0.094202   -0.395724
C     -1.910129    1.205862    0.152552
C     -1.252991    1.016456    1.475486
C     -0.066476    0.087793    1.380653
C      0.923328    0.652824    0.404073
C      2.161288   -0.249828    0.276770
C      3.040087    0.421133   -0.745090
C      5.202351   -0.423767    0.202639
C      4.323978   -0.291281   -1.030744
C      6.423747   -1.139148   -0.222317
O      5.046393    0.496303   -1.927878
O      6.329119   -2.238228   -0.792065
O      7.659044   -0.576190    0.017865
H     -5.715125   -1.690530   -0.499905
H     -6.711524   -0.782597   -1.661659
H     -4.977647   -1.147467   -2.078834
H     -6.224220    0.984982   -0.401439
H     -4.623404    0.974373   -1.229537
H     -5.334021   -0.454462    1.420393
H     -4.321368    1.063503    1.221546
H     -2.910040   -1.087100    1.463792
H     -3.750238   -1.721421    0.020347
H     -1.507080   -0.742477   -0.540480
H     -2.830393    0.078058   -1.413379
H     -2.774392    1.920452    0.283045
H     -1.244812    1.723936   -0.581619
H     -2.009765    0.581825    2.182373
H     -0.948548    1.989801    1.936654
H      0.392240    0.065360    2.399819
H     -0.411582   -0.934549    1.120411
H      1.233415    1.659508    0.730875
H      0.505017    0.721424   -0.615895
H      2.682534   -0.339295    1.232014
H      1.844258   -1.238312   -0.114918
H      3.274429    1.444534   -0.367812
H      2.481754    0.479058   -1.702846
H      5.449985    0.586751    0.556600
H      4.690441   -1.047735    0.974937
H      4.144956   -1.294428   -1.463204
H      4.592763    1.340005   -2.153701
H      8.487281   -0.844173   -0.520434
