70

C     -2.323713    2.471216   -1.084225
C     -2.901948    3.403849   -0.369378
C      9.068275   -1.028756   -1.315753
C      8.429513   -1.544739   -0.201139
C      8.371923   -0.152878   -2.108528
C     -2.891210    1.192133   -1.377595
C     -4.234421    3.282217    0.251089
C      7.130864   -1.190986    0.106977
C      7.082871    0.197092   -1.801313
C     -2.173052   -0.069099   -0.974294
C     -5.197120    4.343162   -0.271725
C      2.866023   -0.306712    0.474078
C      3.360991    1.798972   -0.474852
C      4.156935   -0.748907    0.213011
C      4.646729    1.359572   -0.735407
C     -1.458260   -3.025922   -0.714744
C     -1.856033   -3.862834    1.372998
C     -2.603649   -3.754300   -1.385666
C     -2.821990   -4.835904    0.662421
C     -1.371483    0.326366    2.598157
C      1.055815    1.444156    0.420766
C      2.448710    0.965035    0.137588
C      6.443761   -0.311047   -0.697135
C      5.070125    0.083763   -0.399088
C     -1.950062   -0.198013    0.435409
C     -1.723727   -1.101100    2.473086
C     -1.052977    0.782766    1.149291
C     -6.497880    4.140197    0.407391
C     -1.445493   -1.465800    1.056801
N     -1.858386   -2.685970    0.615449
O     -2.142703   -1.802540    3.334497
O     -7.445821    4.904552    0.116971
O     -6.671545    3.146545    1.330548
O     -3.467464   -4.235302   -0.404615
O      0.261676    0.407565    0.842685
H     -1.317653    2.720076   -1.483189
H     -2.330910    4.359290   -0.226363
H     10.089181   -1.302399   -1.564048
H      9.020664   -2.234537    0.397635
H      8.891471    0.248519   -2.989854
H     -3.970508    1.149346   -1.053587
H     -3.032099    1.174715   -2.524432
H     -4.064027    3.456252    1.352175
H     -4.743428    2.329125    0.135691
H      6.666805   -1.624152    0.998071
H      6.557588    0.888877   -2.442773
H     -1.237453   -0.074537   -1.611678
H     -2.872645   -0.897718   -1.300019
H     -5.357648    4.220829   -1.360619
H     -4.795352    5.356795   -0.076429
H      2.148993   -0.974354    0.959884
H      3.029795    2.793464   -0.736919
H      4.465711   -1.758313    0.487752
H      5.362905    2.013439   -1.215991
H     -0.659991   -3.846462   -0.575660
H     -0.951633   -2.288046   -1.307371
H     -2.030416   -3.854702    2.432340
H     -0.839582   -4.354508    1.238500
H     -2.237217   -4.626629   -1.967453
H     -3.188676   -3.138591   -2.068130
H     -3.639792   -5.046344    1.413507
H     -2.326553   -5.740853    0.316402
H     -2.228421    0.970411    2.883753
H     -0.553886    0.544756    3.278029
H      1.175969    2.194069    1.244713
H      0.701051    1.907703   -0.509050
H     -2.983946   -0.034786    0.944441
H     -1.247535    1.821047    1.015623
H     -0.303580   -1.403266    0.908810
H     -7.502457    3.123137    1.931260
