48

C     -1.295418    0.758899   -1.898824
C     -7.924577    1.815936   -0.316647
C      7.438868    0.986462   -1.286716
C      7.900120   -0.106403   -0.589033
C      6.080906    1.264692   -1.303014
C      6.998659   -0.896073    0.075657
C      3.800566    0.491649   -0.470362
C     -3.816091    0.470870    0.351552
C     -0.776628   -1.719343    1.881010
C      0.720682    0.822159   -0.387027
C     -0.774282    1.046113   -0.511242
C      5.188966    0.470643   -0.636519
C     -2.686286   -0.162139    0.763203
C      5.625435   -0.621390    0.063803
C      3.426418   -0.563407    0.309650
C     -4.916558   -0.093517    0.973497
C     -0.387235   -0.737994    0.983706
C     -2.116965   -1.928503    2.224351
C     -1.359054    0.042849    0.425067
C     -3.086271   -1.138267    1.657070
C      2.099074   -0.966043    0.769061
C     -6.308030    0.321612    0.782195
N      4.575347   -1.230147    0.622448
N     -4.434744   -1.066146    1.757687
N      0.891345   -0.325360    0.471054
O     -2.458321   -2.923332    3.127426
O      2.061597   -2.001208    1.510476
O     -7.224801   -0.265672    1.401742
O     -6.615470    1.347442   -0.069163
H     -2.274936    0.234201   -1.802018
H     -0.603824    0.047340   -2.396858
H     -1.461082    1.683724   -2.486581
H     -8.668594    1.015458   -0.420280
H     -7.900678    2.367254   -1.299505
H     -8.163997    2.566801    0.449432
H      8.131586    1.630928   -1.823591
H      8.975130   -0.314926   -0.584247
H      5.675079    2.127478   -1.848402
H      7.327875   -1.755804    0.628885
H      3.198527    1.255766   -0.918733
H     -3.868567    1.285719   -0.347902
H     -0.014550   -2.336193    2.325267
H      1.060442    0.552910   -1.410640
H      1.132638    1.753761    0.017418
H     -1.091231    2.048444   -0.206577
H      4.661383   -2.096370    1.211733
H     -5.024548   -1.680143    2.360847
H     -1.717905   -3.480732    3.520698
