45

C     -4.776579    2.338765   -1.065339
C     -5.328326   -0.536709    1.113085
C     -4.586799   -0.554449   -1.191765
C      5.872168    0.350684    0.614632
C      5.708538   -0.655296   -1.617655
C     -4.933415    1.585126    0.012773
C      0.242571   -0.805733   -0.689248
C     -2.097796   -0.325256   -0.314508
C      2.791984   -1.241327   -0.930873
C      0.838705    0.372637    1.683397
C     -0.767726   -0.272428    0.090893
C      1.561720   -0.746340   -0.273927
C     -3.046259    0.227605    0.516849
C      1.871991   -0.151332    0.926242
C     -0.484031    0.329585    1.298259
C      3.861682   -0.906076    0.054816
C     -2.694435    0.820761    1.723077
C     -4.454997    0.181989    0.108164
C      4.925927    0.003416   -0.525397
O     -3.623406    1.296630    2.412881
O      4.368311    1.190974   -0.979375
O      3.264790   -0.214131    1.126592
O     -1.441838    0.844452    2.055441
H     -4.277684    1.935349   -1.934448
H     -5.131601    3.358297   -1.116416
H     -6.270292   -0.808779    0.572905
H     -4.878292   -1.495682    1.443545
H     -5.631739    0.112829    1.950752
H     -4.075138   -0.080385   -2.034305
H     -4.208039   -1.592940   -1.115486
H     -5.672193   -0.626642   -1.495435
H      6.849211    0.679693    0.219001
H      6.063703   -0.537031    1.253730
H      5.405007    1.131344    1.265449
H      5.386794   -0.331413   -2.626901
H      6.776709   -0.385529   -1.518035
H      5.643198   -1.773493   -1.509575
H     -5.435376    2.008202    0.875468
H     -0.041871   -1.269499   -1.634463
H     -2.336059   -0.797736   -1.264586
H      2.989304   -0.790834   -1.907086
H      2.704195   -2.354376   -0.973866
H      1.115694    0.833955    2.622285
H      4.395091   -1.808500    0.443892
H      3.556600    1.459625   -0.484968
