48

C      1.807026   -3.732180   -0.291830
C      7.508088    2.117852   -0.671684
C     -6.795673    2.401926   -0.062917
C     -5.703291    3.188022   -0.390534
C     -6.557358    1.100767    0.277616
C     -4.421737    2.667829   -0.371348
C     -4.757159   -0.666296    0.594987
C      3.404124   -0.766220   -0.502268
C     -0.070558    0.325480    1.389398
C     -0.381368   -3.155334    0.634440
C      0.695607   -2.739919   -0.392644
C     -5.265695    0.565530    0.300021
C      2.149077   -0.600651    0.068079
C     -4.197201    1.351705   -0.025278
C     -3.354791   -0.662882    0.456386
C      4.148018    0.360160   -0.234184
C     -0.083503   -0.915033    0.779884
C      1.026937    1.134153    1.363377
C      1.030405   -1.399979    0.107792
C      2.148608    0.646448    0.685574
C     -2.507171   -1.804902    0.728550
C      5.543990    0.626977   -0.645334
N     -3.071655    0.589920    0.076556
N      3.351588    1.173683    0.478435
N     -1.134566   -1.872175    0.740479
O      1.028685    2.377971    1.979019
O     -3.131572   -2.912278    0.993839
O      6.186535   -0.218056   -1.313648
O      6.174431    1.808144   -0.306005
H      2.462324   -3.670042   -1.200005
H      1.338142   -4.754772   -0.363491
H      2.362702   -3.704417    0.648917
H      7.751144    1.790706   -1.691252
H      7.592013    3.227329   -0.642448
H      8.232084    1.724127    0.093538
H     -7.784455    2.855921   -0.092461
H     -5.893736    4.235619   -0.664850
H     -7.372059    0.457662    0.537851
H     -3.564519    3.296323   -0.631685
H     -5.343178   -1.522067    0.892444
H      3.711159   -1.626306   -1.047497
H     -0.964928    0.696162    1.917628
H      0.070674   -3.365554    1.597515
H     -1.029186   -3.900464    0.188789
H      0.282347   -2.757676   -1.408811
H     -2.127900    0.977893   -0.150577
H      3.628245    2.126485    0.842417
H      1.879307    2.922411    1.917939
