48

C     -2.808735    0.683636   -2.872109
C      2.518641    1.196311   -3.210883
C      3.214211    2.389799   -3.290948
C      2.210645    0.698430   -1.978435
C      3.566728    3.031362   -2.130226
C     -2.799530   -0.696093    0.571360
C     -3.034937    0.324995   -0.486363
C     -0.371329   -1.832731    3.924925
C      2.829483    0.849469    1.626900
C     -2.159882   -1.424318   -1.872830
C      2.543672    1.307731   -0.762179
C     -1.522359   -1.533192    0.472847
C      3.224194    2.480306   -0.881084
C     -1.097234   -1.962228    2.793432
C      0.814725   -1.087051    3.968890
C      2.408640    0.257218    2.805787
C     -0.984977   -1.137262   -0.886115
C      2.076618    0.696381    0.479665
C     -0.644475   -1.319586    1.607911
C      1.241599   -0.475666    2.804731
C      0.522978   -0.583851    1.602814
Cl     3.663689    3.404517    0.560190
N     -3.046082   -0.253295   -1.811200
O     -2.282382   -2.720286    2.802397
O      1.467517   -1.010223    5.150847
O      3.083668    0.384971    3.857743
O     -0.732806    0.223613   -0.989209
O      0.971234   -0.001837    0.515354
H     -2.524613    1.704046   -2.514587
H     -2.093088    0.254597   -3.612767
H     -3.736843    0.852461   -3.462231
H      2.222706    0.661808   -4.115981
H      3.443929    2.761189   -4.287433
H      1.673892   -0.263587   -1.896090
H      4.111951    3.968401   -2.188399
H     -2.947211   -0.237502    1.544480
H     -3.681910   -1.423892    0.458602
H     -4.140411    0.640229   -0.306483
H     -2.529507    1.293059   -0.376633
H     -0.711570   -2.319207    4.852696
H      3.761684    1.372582    1.696793
H     -2.706661   -2.265902   -1.453762
H     -1.819471   -1.623452   -2.871306
H     -1.832703   -2.594211    0.444754
H     -0.149332   -1.737820   -1.177393
H     -2.893680   -2.889781    2.066125
H      2.255578   -0.607312    5.485600
H     -0.576252    0.563174   -1.866277
