144

C     -3.962846    5.878857   -1.653923
C     -6.352964   -2.288402    1.919339
C      0.067115    3.261854   -2.456008
C      4.073652   -2.603481   -1.027753
C     -3.419626    6.441856    2.270378
C      2.475416    5.235667    1.155575
C     -1.592783   -5.267861   -3.903568
C     -3.501825   -0.086402   -0.924007
C      9.096741   -3.582109   -0.722799
C     -0.465060    5.254362    4.050624
C     -6.763331    1.968851   -0.596219
C     -6.719456    3.328559   -1.211158
C     -6.579750    1.524328    0.624609
C      1.385233   -3.944912    3.377081
C      1.240893   -5.279915    2.672184
C     -5.867534    4.305984   -1.298197
C     -6.623731    0.145246    1.238685
C      1.606143   -2.845181    2.335273
C     -3.729314   -5.195804   -2.720767
C      6.722655    0.117869   -0.780660
C     -4.439524   -4.813554   -1.443084
C      8.046911    0.646691   -0.269870
C      0.046166   -5.283466    1.718449
C     -4.483564    4.998364    0.625950
C      1.389639    3.460514   -0.324632
C      4.543586   -0.503630    0.308529
C      6.699953   -1.794401    0.743219
C     -4.665384   -2.975594    0.225706
C      2.281042    0.742290   -0.737174
C     -4.493739    4.659854   -0.873994
C     -6.084416   -1.032332    1.101840
C      0.508112    2.565397   -1.150120
C      3.860466   -1.122693   -0.841461
C     -3.175738    5.629864    1.029069
C      1.324829    4.536564    0.389020
C     -2.233577   -5.111461   -2.576193
C      6.015549   -0.534965    0.385023
C     -3.894164   -3.461589   -1.018838
C      0.379539   -2.889952    1.431379
C      8.798861   -0.419748    0.466691
C      1.223139    1.305335   -1.585673
C     -5.018782   -1.535744    0.102129
C      2.373161   -0.789116   -0.911448
C      8.178978   -1.780758    0.395580
C     -2.097275    4.631071    1.188451
C      0.169369    5.499218    0.695499
C     -0.761468    4.928625    1.758044
C     -0.358636   -3.844213   -1.688585
C      0.395261   -4.450985   -0.604025
C      0.423575   -1.740481    0.450790
C     -1.820340   -3.823174   -1.871917
N      0.279226   -4.173875    0.781832
O      9.010652   -0.098920    1.805523
O      0.891300    0.801044   -2.632358
O     -2.315031    3.495594    0.831832
O     -0.606401    5.939704   -0.317084
O      0.355035   -3.264281   -2.583782
O      1.281090   -5.352607   -0.925819
O     -0.744575   -1.326553    0.197628
O     -2.128104   -2.805577   -2.783644
O     -3.836612   -0.826919    0.170855
O      8.359502   -2.406324   -0.834380
O     -0.847355    5.786874    2.854194
O      1.607715   -1.355758    0.026106
O     -2.555221   -3.610836   -0.741745
H     -4.337682    6.823366   -1.223689
H     -2.898575    5.837100   -1.845524
H     -4.468241    5.800400   -2.659988
H     -5.381657   -2.806977    2.132403
H     -6.841848   -2.296697    2.861907
H     -6.956058   -3.023744    1.301926
H      0.022236    2.558500   -3.282299
H      0.863972    4.005662   -2.672501
H     -0.860260    3.844592   -2.289827
H      4.023556   -3.148471   -0.073360
H      4.958299   -2.854203   -1.659891
H      3.200230   -2.923305   -1.694473
H     -4.454888    6.879281    2.153041
H     -2.754135    7.333189    2.338294
H     -3.451346    5.856597    3.197148
H      2.897897    6.057391    0.542361
H      1.990632    5.829496    2.020315
H      3.218010    4.701362    1.662716
H     -2.350544   -5.461123   -4.710231
H     -0.972338   -4.440366   -4.241669
H     -0.934316   -6.184836   -3.950444
H     -4.293412    0.697477   -1.152950
H     -2.547357    0.491799   -0.721883
H     -3.336765   -0.587956   -1.868508
H      8.616396   -4.331362   -0.059459
H     10.159479   -3.382304   -0.456714
H      9.122839   -4.055459   -1.737505
H      0.586345    4.903933    4.078965
H     -0.512702    6.102750    4.793927
H     -1.164683    4.490605    4.452009
H     -7.026050    1.254516   -1.492743
H     -7.757665    3.452032   -1.769596
H     -6.329968    2.229581    1.524957
H      2.320116   -3.999048    3.958313
H      0.533141   -3.731995    4.034501
H      2.144460   -5.412687    2.017208
H      1.143990   -6.049695    3.442197
H     -6.185179    5.281793   -1.844928
H     -7.408443    0.333417    2.115723
H      2.501614   -3.113284    1.775067
H      1.634046   -1.878502    2.832578
H     -4.035995   -4.634957   -3.599690
H     -4.002064   -6.276188   -2.905558
H      6.169601    0.963286   -1.199631
H      6.964331   -0.605712   -1.582946
H     -4.237010   -5.593909   -0.698233
H     -5.522245   -4.781107   -1.681954
H      8.633639    1.179377   -1.025630
H      7.779973    1.437929    0.493503
H     -0.862746   -5.093306    2.340054
H     -0.003611   -6.260911    1.260990
H     -4.622924    4.079011    1.225792
H     -5.347559    5.653566    0.801760
H      2.388307    2.875582   -0.530161
H      4.183237   -1.088094    1.226045
H      4.145811    0.529473    0.552678
H      6.616568   -1.945824    1.858181
H      6.269551   -2.654994    0.227315
H     -5.483258   -3.683350    0.421811
H     -3.905670   -3.171761    1.044371
H      3.248534    1.198193   -1.107625
H      2.201825    1.032457    0.325477
H     -3.694102    3.917967   -0.997886
H     -0.402836    2.179183   -0.698754
H      4.303201   -0.649201   -1.772512
H     -2.823393    6.364737    0.249441
H     -1.918163   -5.954640   -1.925482
H      6.267280    0.182508    1.266468
H     -4.136666   -2.766330   -1.825730
H     -0.483723   -2.823960    2.123308
H      9.802079   -0.499844   -0.021195
H     -5.381942   -1.389688   -0.940554
H      2.112301   -0.942827   -1.999651
H      8.697177   -2.421460    1.152664
H      0.592187    6.483106    1.105407
H     -0.377567    3.974146    2.171597
H      9.979123   -0.044362    2.015095
H     -0.015858    6.324181   -1.034128
H     -2.782922   -3.041962   -3.458213
