43

C     -4.173563    1.290411   -1.375962
C     -3.996197   -0.024555    0.678285
C      2.124947   -3.030267    0.149814
C     -0.257859   -3.290332    0.651611
C     -0.243356    1.787808    1.024601
C      2.426904    0.216856    0.242743
C     -1.550928    1.007780    0.947067
C     -1.294049   -0.185853    0.066948
C      0.130337   -0.270875   -0.392092
C     -3.226304    0.703688   -0.376968
C      0.812790   -2.269967    0.345948
C      1.051479   -0.102613    0.801313
N      4.132793    3.503540   -0.935147
O      3.895898    1.376548   -2.532925
O      4.918450    1.053667   -0.319817
O      0.678430    0.917581    1.637695
O      2.380329    1.417494   -0.464389
O     -2.521423    1.741627    0.273679
O     -2.211135   -0.050268   -0.942936
O      0.444536   -1.583260   -0.783157
O      1.005408   -1.361210    1.371613
S      3.874796    1.805954   -1.096114
H     -3.622311    1.728180   -2.210202
H     -4.742654    2.104291   -0.844211
H     -4.939442    0.547327   -1.679086
H     -3.390842   -0.650616    1.341777
H     -4.473544    0.757174    1.338228
H     -4.859159   -0.607667    0.267447
H      2.920701   -2.640208    0.835486
H      2.458939   -2.998554   -0.909208
H      2.008941   -4.108690    0.421821
H     -1.053159   -3.309567   -0.149682
H      0.151058   -4.342137    0.640266
H     -0.702580   -3.165250    1.653591
H     -0.428235    2.656174    1.655492
H      0.069591    2.085180    0.013498
H      2.745938   -0.564273   -0.488938
H      3.182134    0.325589    1.026212
H     -1.839180    0.721660    1.966459
H     -1.520457   -1.096339    0.654536
H      0.411891    0.449680   -1.159818
H      5.066868    3.724274   -1.362935
H      4.153222    3.730019    0.074737
