26

C     -1.939117   -0.852848   -1.719435
C     -2.063733   -0.066061   -0.446918
C      2.670052   -0.148884   -0.007773
C      2.192283   -1.406009    0.691159
C      1.560586    0.033115   -1.052454
C     -0.807838    0.673503   -0.154736
C      0.708610   -1.229013    0.649501
C     -0.958466    1.448919    1.117749
N     -0.183207    1.225009    2.118100
N      0.383522   -0.109055   -0.180853
O     -0.158866   -1.941442    1.244881
O     -1.931730    2.424580    1.253866
H     -1.901049   -0.150661   -2.586606
H     -2.827479   -1.489634   -1.864253
H     -1.010385   -1.450218   -1.693018
H     -2.426306   -0.709274    0.362310
H     -2.870365    0.697131   -0.620942
H      3.617914   -0.290353   -0.525035
H      2.672561    0.701313    0.707848
H      2.549070   -1.450208    1.740475
H      2.526088   -2.272482    0.084178
H      1.597221   -0.845441   -1.712377
H      1.604181    0.998732   -1.544750
H     -0.697199    1.464384   -0.955000
H     -0.284480    1.756608    2.994214
H     -2.021867    2.988288    2.099872
