40

C     -3.563351   -0.513317   -1.370679
C      1.321134   -2.306513    1.223924
C     -0.648017    1.621909    1.321791
C      2.673756   -2.204839    0.978064
C      0.312906    2.748821    1.153372
C     -0.215197    0.180163   -2.165580
C     -1.315238   -0.795055   -2.178474
C     -1.000581   -1.414003    0.877216
C      0.445993   -1.391770    0.666755
C     -0.955637    0.967631    0.004409
C     -1.714119   -0.322771    0.162599
C      3.182209   -1.182956    0.167468
C      1.526765    2.291432    0.411035
C      0.986950   -0.422300   -0.110409
C      2.310347   -0.270599   -0.388198
C      1.289714    1.699214   -0.941730
C      0.244765    0.645849   -0.811843
N     -2.204509   -0.806003   -1.082370
O      4.538591   -1.056563   -0.096756
O      2.632141    2.406971    0.904255
O      2.430940    0.851355   -1.220205
H     -4.134833   -0.554399   -0.407986
H     -4.047615   -1.273901   -2.024965
H     -3.753183    0.473067   -1.821513
H      0.882399   -3.082323    1.846295
H     -1.611462    2.055954    1.700086
H     -0.317574    0.893322    2.086368
H      3.359707   -2.910600    1.406302
H      0.564625    3.196923    2.134531
H     -0.181412    3.502776    0.473428
H      0.700020   -0.210206   -2.698356
H     -0.484371    1.111577   -2.745014
H     -0.887395   -1.830264   -2.292980
H     -1.918779   -0.636178   -3.115646
H     -1.154128   -1.367789    1.997473
H     -1.377120   -2.387165    0.499011
H     -1.604891    1.646206   -0.587386
H     -2.625565   -0.053959    0.778220
H      1.131579    2.437415   -1.723240
H      5.180435   -1.737114    0.318827
