43

C     -3.675822   -0.424790   -1.997851
C      5.387355    0.236750   -0.290605
C      1.475437    1.281957   -1.683911
C     -1.119581    1.411669    1.639267
C     -0.741000    0.956252    3.030351
C      2.762419    0.945360   -1.234409
C     -0.909151   -1.990023   -0.082225
C     -1.777062   -1.703423   -1.259144
C     -0.997996    1.039790   -1.467576
C      0.383259    0.730327   -1.070094
C     -1.552559    0.219040    0.864888
C     -2.045834    0.564323   -0.530176
C      0.213785   -0.186429    3.001780
C      2.936995    0.065546   -0.181347
C      0.620233   -0.127527   -0.042014
C      1.844332   -0.499087    0.448076
C      0.249294   -1.201935    1.946621
C     -0.481501   -0.797208    0.698468
N     -2.713390   -0.642407   -0.982053
O      1.006878   -0.267702    3.918270
O      4.206361   -0.261833    0.256871
O      1.611008   -1.384456    1.495472
H     -4.575333   -1.064530   -1.764476
H     -4.057857    0.621713   -1.950177
H     -3.347258   -0.720444   -2.998418
H      5.406640    0.137978   -1.398861
H      5.470891    1.338657   -0.079561
H      6.250414   -0.229426    0.195467
H      1.346651    1.969733   -2.506421
H     -0.334610    2.010149    1.157472
H     -2.018902    2.078713    1.766083
H     -0.374637    1.764596    3.664812
H     -1.677050    0.558803    3.509142
H      3.648220    1.365036   -1.699700
H     -1.334943   -2.783816    0.578316
H      0.034611   -2.462253   -0.489597
H     -2.380802   -2.619585   -1.469778
H     -1.198272   -1.516145   -2.193704
H     -1.162671    0.605036   -2.486428
H     -1.064577    2.147496   -1.607639
H     -2.418320   -0.239202    1.390824
H     -2.821135    1.345467   -0.426338
H     -0.074522   -2.177130    2.330325
