65

C      4.400883    1.327057   -1.043893
C     -3.395694   -1.830145    0.636970
C      1.263440   -1.647516    0.482079
C      4.341557   -0.629328    0.413504
C     -3.353366    0.796459    1.905268
C     -1.907168    0.627079    2.033348
C      2.220639    1.501208    0.943909
C      0.996655    1.033922    1.782938
C      5.651355   -1.178760   -0.001230
C     -4.766113    0.478765   -1.947376
C     -1.043245   -0.944818   -1.333981
C     -4.019229   -0.780521   -1.469189
C      0.355787   -0.476974   -1.467234
C     -5.418526    0.525257    0.488151
C      3.585745    0.091164   -0.626845
C     -3.928211    0.590098    0.543886
C     -5.785064    0.789804   -0.920339
C     -1.148151   -0.076728    0.958028
C      2.235257    0.589489   -0.233420
C      0.121933    0.598615    0.660413
C     -1.859430   -0.138823   -0.369721
C      6.697066   -0.273277   -0.425702
C     -3.265996   -0.556858   -0.197674
C      1.081669   -0.306446   -0.124998
O     -6.849579    1.231461   -1.223322
O      7.041567   -0.224407   -1.645734
O      7.344835    0.553012    0.464446
H      4.945686    1.160023   -1.979672
H      3.640990    2.153018   -1.298893
H      5.073365    1.685086   -0.257258
H     -3.810537   -1.637708    1.643703
H     -4.131438   -2.544189    0.161261
H     -2.443857   -2.398941    0.668829
H      0.303593   -2.234294    0.276274
H      2.001267   -2.243138   -0.125522
H      1.541836   -1.701357    1.524477
H      4.589845    0.187690    1.211045
H      3.792738   -1.423589    0.969951
H     -3.676129    1.837521    2.216026
H     -3.945517    0.143316    2.606751
H     -1.441120    1.651717    2.150840
H     -1.671921    0.120063    3.005615
H      3.096098    1.489016    1.588400
H      2.062391    2.553333    0.638993
H      0.567454    1.934146    2.256385
H      1.272186    0.269899    2.502536
H      6.054752   -1.792053    0.881939
H      5.516215   -2.006923   -0.779746
H     -5.199480    0.245967   -2.927993
H     -4.050193    1.316563   -2.120209
H     -1.470650   -0.869663   -2.385183
H     -1.157677   -2.022428   -1.093062
H     -4.858578   -1.506708   -1.253078
H     -3.469220   -1.191793   -2.305492
H      0.332385    0.539627   -1.940179
H      0.934680   -1.126269   -2.127822
H     -5.861374    1.237698    1.208700
H     -5.831355   -0.476014    0.748076
H      3.535558   -0.522316   -1.564613
H     -3.633267    1.508239   -0.052468
H     -0.958934   -1.121109    1.270525
H      1.937238    1.293736   -1.137860
H     -0.059378    1.477645    0.003450
H     -1.871357    0.921385   -0.747045
H      7.745087    1.424017    0.105899
