74

C      6.738687   -1.042971    0.469134
C      7.477966    0.856639    1.819825
C      3.240667   -1.327920   -1.951510
C     -4.801228   -0.703992   -1.685351
C      0.456833   -1.698809   -0.222337
C      0.081909   -0.301782    2.248588
C     -1.348357   -0.116043    1.934290
C      3.873588    0.613755   -0.606308
C     -2.897511    0.204593    0.077786
C     -3.980132   -0.081203    1.000954
C      0.550241    0.063114   -2.441996
C     -0.834788    0.141632   -1.836977
C      5.237401    0.629182   -1.261943
C      1.079347    0.205887    1.245194
C     -6.351170   -0.407196    1.523530
C     -7.623761    0.965796   -0.065405
C      6.370212    0.372414    0.893929
C      2.865230    0.055595   -1.579697
C     -5.522837   -0.026240   -0.830402
C     -1.636998    0.189219    0.524778
C     -5.235201   -0.134940    0.604020
C     -7.638470   -0.322906    0.714599
C      1.479104    0.363890   -1.254214
C     -0.598521    0.481732   -0.417932
C      6.282119    1.200227   -0.346817
C     -6.665237    0.814532   -1.250309
C      0.744226   -0.233506   -0.153015
O     -8.764671   -0.457414    1.504590
O      5.972417    2.517632    0.027355
O     -7.347184    0.270940   -2.346208
H      5.862076   -1.623338    0.159490
H      7.485967   -1.030352   -0.349633
H      7.251452   -1.505088    1.353929
H      8.426262    0.348295    1.542690
H      7.254603    0.572063    2.868515
H      7.520364    1.946465    1.736763
H      4.067963   -1.291033   -2.691789
H      2.436726   -1.911763   -2.456660
H      3.672902   -1.914121   -1.089296
H     -5.050771   -0.586993   -2.747915
H     -4.005667   -1.398762   -1.500968
H      1.285617   -2.237052    0.325321
H      0.398976   -2.132152   -1.213580
H     -0.509230   -1.967913    0.296888
H      0.267998   -1.405482    2.378804
H      0.331807    0.137187    3.242842
H     -1.937858   -1.050705    2.195500
H     -1.768992    0.655920    2.630251
H      3.965076   -0.157875    0.204869
H      3.669549    1.623530   -0.255366
H     -3.091848    0.489621   -0.935882
H     -3.763202   -0.252693    2.039856
H      0.654506    0.847333   -3.219124
H      0.687943   -0.951606   -2.836561
H     -1.415104   -0.786187   -2.000761
H     -1.426788    0.962603   -2.317838
H      5.194153    1.238146   -2.209466
H      5.521784   -0.390018   -1.603676
H      1.037265    1.315676    1.272374
H      2.071815   -0.133369    1.597842
H     -6.256250   -1.428235    1.988108
H     -6.409023    0.297696    2.378507
H     -8.628493    1.110391   -0.498161
H     -7.305744    1.788686    0.598996
H      5.413803    0.405929    1.425810
H      3.063872    0.677822   -2.522824
H     -7.636682   -1.152564   -0.033776
H      1.404261    1.488571   -1.148731
H     -0.357182    1.577900   -0.363656
H      7.272136    1.289294   -0.871210
H     -6.313676    1.821222   -1.547579
H     -8.561530   -1.090715    2.256969
H      5.321017    2.517236    0.767932
H     -8.305735    0.194570   -2.106347
