65

C      4.424720    1.325532   -0.808662
C     -3.666594   -1.346991    0.689236
C      1.374949   -1.909395    0.372411
C      4.116781   -0.344622    0.979997
C     -3.458272   -0.584294   -1.927258
C     -2.002419   -0.756545   -2.153058
C      2.446533   -0.725507   -1.855690
C      1.001576   -1.151884   -2.195346
C      5.126290    0.177746    1.951306
C     -4.944177    1.195855    1.724115
C     -0.851891   -0.139765    1.409324
C     -3.483793    0.904545    1.577296
C      0.565936    0.362618    1.099928
C     -5.165934    0.890559   -0.856499
C      3.456657    0.600899    0.094364
C     -3.747071    0.519895   -0.900101
C     -5.653758    1.370865    0.453371
C     -1.171755   -0.853579   -0.901500
C      2.304704    0.175596   -0.706164
C      0.193789   -0.391367   -1.205919
C     -1.671327    0.085519    0.194917
C      6.319897    0.805417    1.388481
C     -3.147544    0.031717    0.391861
C      1.143564   -0.461744    0.017190
O     -6.725868    1.954070    0.468127
O      7.236417    0.062269    0.902272
O      6.501050    2.170461    1.362349
H      5.409251    0.835132   -0.871568
H      3.985534    1.442481   -1.846942
H      4.541762    2.361145   -0.433844
H     -3.168307   -2.156388    0.156650
H     -4.775651   -1.315547    0.469291
H     -3.616964   -1.539691    1.793041
H      0.579063   -2.571348   -0.055060
H      1.313195   -2.004001    1.472402
H      2.313973   -2.335040    0.031239
H      4.689641   -1.131194    0.380552
H      3.439040   -0.987058    1.594296
H     -3.994657   -1.499901   -1.637645
H     -3.919543   -0.232034   -2.875880
H     -1.857527   -1.721261   -2.704290
H     -1.594235    0.028374   -2.792489
H      2.786494   -0.127864   -2.746366
H      3.010031   -1.640799   -1.746466
H      0.749316   -0.933508   -3.245876
H      0.853131   -2.227265   -2.039999
H      5.482696   -0.722981    2.536041
H      4.615229    0.875095    2.674862
H     -5.481959    0.395350    2.305681
H     -5.025728    2.128937    2.347775
H     -1.169954    0.395377    2.302361
H     -0.741541   -1.239530    1.559962
H     -2.875038    1.831166    1.530751
H     -3.196697    0.298141    2.487690
H      1.169726    0.191122    2.031693
H      0.534826    1.405657    0.789579
H     -5.810513    0.023208   -1.159091
H     -5.394642    1.708501   -1.600831
H      3.028856    1.423222    0.771598
H     -3.141113    1.402384   -1.254268
H     -1.261731   -1.861441   -0.494448
H      1.853523    1.137021   -1.132212
H      0.166180    0.694589   -1.462031
H     -1.432114    1.120462   -0.188844
H      7.413985    2.581617    1.486337
