67

C      7.811789    2.864135    3.227152
C     -7.349336    3.198519    0.633196
C     -6.259503    0.969170    2.348722
C      7.011221    2.148410    2.121556
C     -7.818242    1.789222    0.568833
C      6.650383    0.779486    2.592759
C      5.920082   -0.028964    1.606478
C      4.576568    0.324995    1.119104
C      4.292494    1.541408    0.413464
C      3.903303    1.633099   -0.831158
C      3.673480    0.566372   -1.782560
C      3.885030   -0.817324   -1.454185
C      3.034604   -1.802060   -1.452901
C      1.606548   -1.616509   -1.819497
C      0.766993   -2.025402   -0.671641
C     -0.118052   -2.986134   -0.695712
C     -0.379387   -3.781574   -1.885840
C     -1.696647   -3.723183   -2.510674
C     -2.724929   -2.997678   -2.205284
C     -2.918588   -2.000257   -1.153208
C     -3.292309   -0.679863   -1.863729
C     -3.509092    0.440504   -0.900084
C     -6.761602    0.784072    0.957072
C     -4.595852    0.189799    0.064860
N     -5.649515    0.959228    0.046398
O     -4.583760   -0.822743    1.010753
H      8.059799    3.860784    2.833827
H      7.117693    2.934374    4.090241
H      8.689256    2.225542    3.414906
H     -7.915127    3.846262   -0.095131
H     -6.280104    3.304925    0.379221
H     -7.490018    3.678649    1.620677
H     -5.153906    1.117909    2.378114
H     -6.450029    0.035577    2.916949
H     -6.793110    1.773507    2.905279
H      6.204425    2.826089    1.873658
H      7.662581    2.048107    1.234127
H     -8.694865    1.654148    1.268129
H     -8.224835    1.562588   -0.437268
H      7.648392    0.238737    2.764049
H      6.125317    0.820378    3.597236
H      5.794823   -1.066941    2.089784
H      6.650946   -0.186017    0.741725
H      3.957353   -0.574747    0.873510
H      4.022081    0.541124    2.174286
H      4.341416    2.548416    0.917253
H      3.720391    2.691683   -1.222690
H      4.281693    0.773922   -2.754699
H      2.643266    0.715129   -2.183832
H      4.936786   -1.121634   -1.167034
H      3.362406   -2.822066   -1.172418
H      1.364045   -0.515858   -1.983949
H      1.415731   -2.147918   -2.753577
H      0.895445   -1.479807    0.277793
H     -0.674932   -3.240081    0.261344
H      0.403670   -3.612214   -2.658139
H     -0.174055   -4.901879   -1.591852
H     -1.861840   -4.407537   -3.395261
H     -3.662518   -3.129651   -2.843618
H     -3.780489   -2.329020   -0.522551
H     -2.103068   -1.756822   -0.494850
H     -2.420327   -0.414407   -2.497113
H     -4.141061   -0.831501   -2.544732
H     -3.769692    1.344270   -1.511793
H     -2.599816    0.661470   -0.291983
H     -7.138774   -0.244812    0.792977
H     -5.444631   -1.327410    1.197540
