55

C     -5.855825   -0.649949    0.489778
C     -5.814282   -2.029345    0.312096
C     -4.659621    0.019801    0.451563
C     -4.600570   -2.653606    0.108459
C      0.393069   -3.910732   -0.867155
C     -0.009867   -4.017120    0.527855
C     -2.132773    2.119343    1.607611
C     -2.444342    2.391170   -0.732893
C     -2.123062    3.511733    1.760208
C     -2.436356    3.752764   -0.590687
C      1.287058    0.091752   -0.608963
C      0.118400    0.338795   -0.052995
C      3.470658    0.993626   -1.380964
C      4.803619   -0.449271    0.223522
C     -2.291617    1.550235    0.370991
C      0.239202   -2.627519   -0.190848
C     -2.274516    4.340464    0.661338
C      2.298569    1.180932   -0.490467
C      4.210003   -0.269622   -1.131112
C     -3.449645   -0.612547    0.248497
C     -1.031017   -0.515768   -0.000893
C     -3.406829   -1.979162    0.072251
C      5.817291    0.558958    0.591872
C     -2.282142    0.100635    0.210762
C     -1.043492   -1.849945   -0.158181
F     -2.258128    5.687588    0.846223
N     -2.222418   -2.571778   -0.124033
O      2.677773    1.451405    0.790661
O      5.260092   -0.354977   -2.052776
O      6.976196    0.527234    0.043322
O      5.603920    1.548307    1.499134
H     -6.810511   -0.188098    0.648376
H     -6.758670   -2.591878    0.337595
H     -4.656882    1.080086    0.585492
H     -4.537998   -3.739512   -0.036053
H     -0.256579   -4.136962   -1.737861
H      1.468999   -4.198325   -1.087658
H      0.702160   -4.325438    1.291810
H     -1.046134   -4.288613    0.738933
H     -2.006482    1.528762    2.524368
H     -2.574291    1.967559   -1.715530
H     -1.995069    3.956626    2.734972
H     -2.550332    4.444040   -1.425066
H      1.456782   -0.798653   -1.142046
H      0.028049    1.339556    0.453322
H      4.194258    1.838078   -1.269329
H      3.184148    0.990683   -2.466564
H      5.320047   -1.445833    0.287763
H      4.018059   -0.418955    1.033915
H      1.048208   -2.124513    0.432847
H      1.737972    2.098692   -0.860083
H      3.541242   -1.127896   -1.342941
H      1.918870    1.509837    1.426596
H      5.849969    0.445960   -2.009521
H      5.904836    2.511395    1.342810
