75

C     -6.008369    2.527676    3.254172
C      4.526631   -1.075307   -3.937643
C      2.785829   -2.612372    2.246819
C     -0.151095   -4.671780   -0.546992
C      4.586358   -0.191100    3.868726
C     -6.409962    1.927888    1.898319
C     -6.127272    0.493840    1.858262
C     -5.304852   -0.069429    1.021547
C     -4.552371    0.762249   -0.007462
C     -4.942617    0.297122   -1.341013
C     -4.129657   -0.150959   -2.231544
C      2.612837    2.168865    0.863747
C      3.410648    1.228755    0.019993
C      3.407276    2.884503    1.918547
C     -2.758746   -0.352998   -2.318540
C     -1.308847    1.305006   -1.119738
C      3.674613   -0.112249   -3.152447
C      1.992764   -1.555094    1.566207
C      0.472451   -3.476152   -1.170263
C     -0.466912    1.845792   -2.015453
C      2.597100    0.552207   -1.047802
C      4.055974    1.993535    2.898244
C     -0.307891   -0.423205   -2.304997
C     -0.136064    0.809568   -3.029584
C      1.459016   -0.291094   -0.468856
C      0.767000   -1.064794   -1.562767
C     -1.598268   -0.094987   -1.467597
Cl     0.090414    3.495802   -1.935143
O      3.198014    0.910323   -3.700977
O      1.138806   -0.882056    2.177302
O      1.400373   -3.670676   -1.992821
O      4.790054    2.472302    3.834824
O      0.189989    1.134889   -4.183015
O     -1.519622   -0.882593   -0.311595
O      3.940255    0.623041    2.900972
O      3.395330   -0.322811   -1.820640
O      2.213825   -1.323070    0.234787
O      0.081513   -2.186901   -0.887858
H     -6.179500    1.807002    4.061034
H     -6.598631    3.443557    3.459707
H     -4.955909    2.852803    3.150856
H      5.183462   -1.656690   -3.265065
H      3.832779   -1.733396   -4.468196
H      5.157078   -0.466425   -4.645839
H      2.767838   -2.386300    3.333852
H      3.829208   -2.614516    1.903074
H      2.377618   -3.623921    2.025974
H      0.637360   -5.438047   -0.399233
H     -0.595708   -4.452490    0.438928
H     -0.952538   -5.040024   -1.234310
H      3.836468   -0.542409    4.579494
H      5.366479    0.409778    4.397691
H      5.139698   -1.013851    3.361083
H     -6.193802    2.549733    1.056337
H     -7.569564    1.984825    1.971516
H     -6.630580   -0.202222    2.576059
H     -5.128230   -1.154981    1.030504
H     -4.876687    1.802638    0.121981
H     -3.511906    0.613365    0.281485
H     -6.055417    0.345301   -1.584306
H     -4.708114   -0.476687   -3.230149
H      2.090736    2.921231    0.217155
H      1.795416    1.623041    1.396453
H      3.919949    0.456602    0.599343
H      4.175136    1.866281   -0.515548
H      4.227400    3.503070    1.465949
H      2.778099    3.609347    2.478022
H     -2.440717    0.133236   -3.367628
H     -2.544536   -1.473892   -2.685547
H     -1.709457    1.844332   -0.247735
H      2.259593    1.336531   -1.744670
H     -0.736864   -1.212505   -3.034994
H      0.841964    0.190269    0.254744
H      1.511534   -1.537270   -2.206852
H     -1.404180   -0.291055    0.461109
