95

C      3.818310    0.616126   -0.422688
C      3.106513    1.266757    1.781481
C      4.741406    1.638911   -0.362727
C      4.033274    2.288291    1.833391
C     -3.342039    0.684337   -2.061296
C     -4.666853    0.993741   -1.918151
C      2.709700   -1.973159    0.547207
C      1.848775   -3.143886    0.222954
C     -3.084318    0.491280    0.302490
C      0.864426   -1.674952   -1.379141
C     -0.392208   -0.138817    0.035228
C     -6.572302    0.960886    1.166974
C      2.986113    0.436932    0.684783
C      1.000348   -0.444326   -0.474464
C      4.861733    2.473303    0.741258
C     -2.560728    0.436733   -0.973408
C      1.998525   -0.664182    0.610196
C     -5.219825    1.056420   -0.662156
C     -4.421573    0.803648    0.445936
F      5.793959    3.476219    0.755091
N      0.715882   -2.859368   -0.596910
O     -1.198290    0.117310   -1.098991
O     -6.498827    1.337211   -0.201783
O     -5.207243    0.928902    1.579149
C     -0.296096    0.785294   -1.512169
C     -1.874305   -0.945444   -0.914519
C      0.127129   -0.025632   -2.542878
C     -1.436321   -1.741292   -1.951492
C      2.225609   -0.150341    0.585743
C      3.328512   -0.516813   -0.192911
C     -2.422912    2.428707   -0.064997
C     -3.326230    2.891732    1.084614
C      1.432730   -2.370760    0.485152
C     -1.279123    2.593724    2.298113
C     -0.339583    0.322790    2.279400
C      4.193353   -3.817252   -1.401658
C     -1.319608    0.297876   -0.691169
C     -0.726715    1.479653    1.412778
C     -0.428192   -1.268404   -2.765150
C      1.262444   -1.062140    0.937902
C     -1.800252    1.120011    0.411631
C      3.491875   -1.810274   -0.637582
C      2.521939   -2.713650   -0.278578
F      0.027925   -2.032304   -3.800884
N     -2.718759    2.475046    2.334363
O      0.179534   -0.785963    1.678327
O      4.471511   -2.441981   -1.410610
O      2.906577   -3.933799   -0.840062
Cl     0.686431    0.000000    0.000000
Cl     0.687497    0.000000    0.000000
O     -0.006133    0.371577   -0.000000
H      3.720858   -0.038299   -1.283427
H      2.467533    1.130872    2.634504
H      5.388695    1.777216   -1.225739
H      4.103544    2.916653    2.698735
H     -2.898719    0.633203   -3.051775
H     -5.263949    1.185221   -2.790164
H      3.156877   -2.151298    1.569054
H      3.576807   -1.980390   -0.144292
H      2.438355   -3.950910   -0.304617
H      1.492808   -3.643092    1.171307
H     -2.460092    0.293762    1.166332
H      1.735925   -1.776976   -2.033690
H     -0.026208   -1.557430   -2.022216
H     -0.406656    0.694077    0.761496
H     -0.844408   -1.014039    0.545422
H     -7.097165    1.704000    1.787235
H     -6.993967   -0.051354    1.237023
H      1.364507    0.372430   -1.129465
H      1.431400   -0.645553    1.586131
H     -0.200905   -3.006410   -0.166690
H      0.119324    1.762132   -1.314124
H     -2.673452   -1.341482   -0.283776
H      0.921735    0.378297   -3.162626
H     -1.861719   -2.726266   -2.144068
H      2.197336    0.890723    0.890169
H      4.071567    0.223155   -0.455295
H     -3.053458    2.190564   -0.941397
H     -1.605268    3.125845   -0.261300
H     -3.479363    3.981912    1.052233
H     -4.304160    2.391743    1.005176
H      0.701738   -3.152646    0.728826
H     -0.974324    3.593082    1.903253
H     -0.878072    2.425246    3.312821
H      0.393056    0.656659    3.074545
H     -1.228000   -0.006701    2.901050
H      4.951883   -4.403103   -0.839273
H      4.151996   -4.141822   -2.473118
H      0.106364    1.914265    0.842644
H     -2.601171    0.583169    0.954446
H     -3.157054    2.876445    3.161223
H     -0.686431    0.000000    0.000000
H     -0.687497    0.000000    0.000000
H      0.818882   -0.183713    0.000000
H     -0.812749   -0.187864   -0.000000
