55

C     -5.522204    0.900854    1.671403
C     -5.817461   -0.397693    1.970688
C     -4.302616    1.212151    1.127231
C     -4.946154   -1.435033    1.754669
C     -1.280615   -4.344518    0.527205
C     -0.866591   -3.938686   -0.832332
C     -1.457377    2.787467    1.012766
C     -1.991484    2.407849   -1.247482
C     -1.166870    4.109437    0.753032
C     -1.700112    3.735518   -1.510581
C      0.995282   -0.776458   -0.962729
C      0.005659   -0.101633   -0.443802
C      3.422523   -0.570735   -0.641926
C      5.864278   -0.421915   -0.254467
C     -1.875344    1.901586    0.030576
C     -0.624855   -2.953021    0.263544
C     -1.285363    4.608303   -0.526887
C      2.248430   -0.103183   -1.488508
C      4.712865    0.056217   -1.104316
C     -3.391773    0.196680    0.891891
C     -1.247324   -0.528062    0.107456
C     -3.708491   -1.114156    1.201783
C      5.644998   -0.057924    1.151023
C     -2.173680    0.504925    0.347460
C     -1.590234   -1.808590    0.427295
F     -1.002827    5.912870   -0.806188
N     -2.816456   -2.077858    0.968182
O      2.444445   -0.413276   -2.821287
O      4.970795   -0.205217   -2.447207
O      4.936752   -0.732856    1.937888
O      6.248038    1.091067    1.644638
H     -6.212862    1.737702    1.840761
H     -6.803450   -0.611327    2.404510
H     -4.011343    2.223303    0.868594
H     -5.145613   -2.468408    1.978781
H     -2.352117   -4.304162    0.817749
H     -0.689079   -5.045262    1.134702
H     -1.711004   -3.693016   -1.535436
H      0.003576   -4.489304   -1.274208
H     -1.374988    2.355454    2.013937
H     -2.317933    1.733478   -2.040279
H     -0.840934    4.772579    1.554898
H     -1.792769    4.131248   -2.516934
H      0.917716   -1.828493   -1.052633
H      0.226834    0.996454   -0.436333
H      3.256420   -0.229218    0.410710
H      3.520294   -1.663457   -0.639396
H      5.921013   -1.527966   -0.370084
H      6.823705   -0.000444   -0.626668
H      0.339296   -2.884196    0.803021
H      2.131730    0.988472   -1.371594
H      4.670930    1.173430   -0.957025
H      1.788657   -1.107577   -3.146940
H      5.071158    0.655584   -2.947095
H      5.854528    1.641017    2.385944
