43

C      0.974317   -2.462546    2.088038
C     -5.023652   -0.168046   -0.733718
C     -1.644021   -0.474964    0.241177
C     -0.893597   -1.265047    1.154962
C     -2.928867   -0.221291    0.592396
C      2.871885   -0.278365    1.208901
C      0.654090   -1.122455   -1.560185
C      0.355533   -1.606278    0.956400
C     -3.772424    0.586784   -0.294673
C      2.299577   -0.381194   -0.127366
C      1.111034   -1.351658   -0.204659
C      4.023435    0.618828    1.385615
C      1.739425    0.819780   -0.793672
C     -4.272347    1.830393    0.393565
C      2.723357    1.759515   -1.359420
N      0.977268    0.247347   -1.909929
O      3.982512    1.618907    2.153080
O      5.200835    0.379367    0.702698
O     -4.008497    2.100694    1.576341
O     -5.058535    2.696700   -0.342468
O      2.832312    1.849056   -2.607023
O      3.527112    2.548237   -0.598294
H      1.279429   -1.867417    2.926019
H      1.748248   -3.115091    1.719752
H      0.130622   -3.165341    2.388691
H     -4.847398   -1.242896   -0.859839
H     -5.794408    0.004658    0.016943
H     -5.383634    0.328283   -1.682609
H     -1.381239   -0.018090   -0.679601
H     -1.372462   -1.626284    2.099288
H     -3.353197   -0.603344    1.518693
H      2.050027    0.116933    1.892228
H      3.145401   -1.259824    1.673169
H      1.373490   -1.677272   -2.297465
H     -0.292498   -1.504849   -1.917890
H     -3.234927    0.925857   -1.200107
H      3.099789   -0.761060   -0.831318
H      1.741431   -2.361874   -0.308362
H      1.089280    1.401070   -0.105342
H      0.207842    0.821953   -2.237923
H      5.901674    1.101251    0.508284
H     -5.683117    3.363703    0.059684
H      3.904896    3.415871   -0.922522
