41

C     -2.953353   -0.082729   -0.004761
C     -3.023838   -1.452957   -0.518008
C      4.154363    0.357383   -1.366800
C      3.091350    1.128688   -2.001278
C     -0.977136    2.645058    1.494254
C     -1.906843    0.617540    0.370278
C     -2.052935    2.034117    0.871226
C      4.006315   -0.729839   -0.599069
C     -3.863007   -2.219895    0.499406
C      0.776106   -1.835314   -0.315751
C     -0.589207    0.056333    0.275456
C      1.857990   -1.794468    0.667657
C      1.747435   -1.393345   -1.382111
C      5.174409   -1.388408   -0.032796
C     -3.269761    4.003645    1.066180
N     -4.234865    4.808946    0.963683
N     -3.145412    2.688502    0.670352
N     -0.399451   -1.108892   -0.145409
N      2.724000   -1.266796   -0.323847
O     -3.544428   -2.125202    1.703733
O     -4.926258   -2.980455    0.083674
O      0.527719    0.773983    0.639191
O      1.910511   -2.121762    1.898902
O      6.313753   -0.927692   -0.282199
O      5.057595   -2.493031    0.761591
S      1.512667    0.268375   -2.045117
S     -1.637221    4.346405    1.812909
H     -3.943553    0.448921    0.100507
H     -3.671187   -1.401347   -1.456726
H     -2.135311   -2.011012   -0.714024
H      5.172130    0.684640   -1.527309
H      2.988341    2.151068   -1.543132
H      3.391747    1.270734   -3.083724
H      0.015315    2.383356    1.805784
H      0.564076   -2.948103   -0.524570
H      1.967200   -2.154405   -2.162374
H     -4.187523    5.773970    1.307531
H     -4.050221    2.273001    0.169705
H     -5.494981   -3.538217    0.723375
H      1.270609    0.444561    1.255904
H      5.782862   -3.185358    0.887706
