75

C      4.912312   -2.089309    1.829765
C      5.818568    0.027430    2.946446
C      1.695176    3.022995   -0.851599
C      2.197784   -2.428215   -3.124193
C     -7.259678   -1.209092    1.938306
C     -5.122194   -2.812532    0.777881
C     -4.582714    2.843902    1.132318
C     -1.083049   -0.718633    1.263514
C      4.959380    1.586246    0.766423
C      2.752613    1.435077   -3.020448
C      0.808511   -1.920957   -0.843927
C      4.728539    0.132029    0.765089
C      3.734030    2.411059    0.611256
C      3.439966    1.605779   -1.728206
C      2.768874    0.015299   -3.473155
C      1.411002   -0.801504   -1.558895
C     -2.477796    1.253558   -0.017784
C     -0.657725   -2.029491   -0.785090
C     -1.669028    0.305535   -0.889496
C      5.133324   -0.617505    1.804021
C      3.027300    2.307019   -0.687519
C      2.094878   -0.988808   -2.666089
C     -6.019179   -0.577826    1.431978
C     -5.011676   -1.336503    0.884107
C     -4.720829    1.349723    1.035390
C     -3.708984    0.598651    0.486192
C     -5.891072    0.790271    1.518376
C     -3.828296   -0.770215    0.395775
C     -1.475753   -0.970958   -0.181175
O     -6.918657    1.559017    2.076354
O     -2.831966   -1.566990   -0.151135
H      4.880507   -2.402716    2.890475
H      5.767265   -2.649341    1.361985
H      3.947997   -2.368272    1.352840
H      6.714548    0.589895    2.608096
H      5.120560    0.770221    3.390046
H      6.066939   -0.735484    3.690442
H      0.855165    2.399556   -0.533312
H      1.751770    3.929831   -0.167777
H      1.619485    3.465200   -1.859830
H      2.666253   -2.447814   -4.144151
H      2.806026   -3.040152   -2.455668
H      1.157097   -2.776354   -3.278631
H     -8.019760   -0.440449    2.183128
H     -7.659738   -1.978365    1.250140
H     -7.000736   -1.734011    2.887659
H     -4.474010   -3.192788   -0.050590
H     -4.719506   -3.251744    1.712181
H     -6.146367   -3.150596    0.549959
H     -4.958929    3.132158    2.132456
H     -3.512612    3.113753    0.993090
H     -5.150093    3.333174    0.340898
H     -0.236626   -0.011875    1.248482
H     -0.743601   -1.641374    1.777833
H     -1.877042   -0.280556    1.863679
H      5.447926    1.901625    1.727427
H      5.690047    1.896720   -0.020818
H      3.292503    2.025233   -3.825207
H      1.689212    1.817582   -2.976886
H      1.184631   -2.910016   -1.263687
H      1.216875   -1.978251    0.227800
H      4.238775   -0.379778   -0.022772
H      3.043676    2.186378    1.457407
H      3.970094    3.501972    0.733764
H      4.424904    1.108790   -1.654944
H      2.345654   -0.078827   -4.523965
H      3.843695   -0.333252   -3.635180
H      1.312437    0.183466   -1.177197
H     -2.791501    2.094238   -0.668723
H     -1.884890    1.679570    0.807192
H     -0.954619   -3.002053   -0.257985
H     -1.061712   -2.242558   -1.837134
H     -2.361340    0.089857   -1.767219
H     -0.820681    0.858851   -1.249240
H     -6.903940    2.543503    2.174722
