129

C      0.458982    5.020407    2.444515
C     -3.566485    5.894070    0.525539
C     -4.073597    2.900386   -1.332972
C      4.561803   -1.645794   -2.549790
C     -4.216267   -4.462206    0.635934
C      0.277082    0.828199   -2.128828
C      6.892277    0.755432    3.962694
C     -7.413276    1.282861   -0.751281
C     -7.618900   -2.062554    1.502079
C      0.511125    3.732866    2.243074
C      2.216217   -3.620456    0.477542
C      1.461632   -4.912786    0.406056
C      0.351028    3.131106    0.896900
C      1.262718   -2.474867    0.624174
C      6.767580   -1.171182   -0.768965
C      8.059289   -0.821941    0.033844
C     -0.037737   -4.708184    0.416384
C     -3.273865    3.590265    0.856254
C     -1.242454    4.962419    0.066246
C     -4.200234    1.355710    0.638212
C      4.445138   -0.070503   -0.811659
C     -4.283755   -2.239271    1.621298
C      5.511924   -0.772864    1.233034
C      1.294836    3.371532   -2.321338
C     -2.459518    4.813153    0.438083
C     -3.419121    2.456144   -0.041928
C      3.791246   -0.571368   -1.836529
C     -3.521317   -3.092959    0.654609
C      1.730036    0.929207   -1.620984
C      5.725331   -0.324570   -0.233338
C      0.036311    4.148570   -0.117815
C      0.355835   -2.439915   -0.580036
C      7.880784   -1.221575    1.472974
C      2.205834    2.286673   -1.938029
C      0.114427    3.691158   -1.535265
C      6.734916   -0.351165    2.014234
C     -5.212673    0.680913   -0.220760
C     -5.424341   -1.475854    0.969714
C      2.451625   -0.188182   -2.320384
C     -4.991031   -0.837369   -0.298422
C     -2.666792   -3.092883   -1.684951
C     -1.522719   -3.949246   -1.427006
C      1.168820   -2.331733   -1.833473
C     -3.623676   -2.541969   -0.724778
N     -0.429766   -3.678049   -0.561392
O      9.070841   -0.958649    2.123699
O      3.064713    2.140152   -3.078844
O     -0.982208    3.576522   -2.105560
O     -2.868856   -2.778496   -2.914194
O     -1.451714   -5.097372   -2.034394
O      1.438331   -3.485270   -2.347089
O     -4.909368   -2.946897   -1.196765
O      6.606367   -0.472455    3.371064
O     -6.513867    0.829253    0.161010
O     -6.490235   -2.314434    0.776062
O      1.624557   -1.270140   -2.455830
O     -3.688871   -1.162229   -0.667596
O     -0.003855    0.384576   -0.000000
H      0.303844    5.796653    1.718899
H      0.585174    5.393645    3.475263
H     -4.292407    5.567410    1.368812
H     -4.210127    5.859089   -0.375719
H     -3.353536    6.881563    0.803021
H     -5.150142    3.069157   -1.240324
H     -3.638028    3.890844   -1.591472
H     -3.802542    2.237030   -2.181078
H      4.853248   -2.482288   -1.936417
H      5.292377   -1.238322   -3.262199
H      3.801329   -2.145572   -3.236143
H     -4.320411   -4.841129   -0.405362
H     -5.254182   -4.379450    1.025428
H     -3.689098   -5.182282    1.286991
H     -0.378915    1.064799   -1.300618
H      0.147925    1.344870   -3.074262
H      0.020282   -0.237245   -2.398177
H      6.232404    1.563123    3.640676
H      6.918991    0.672337    5.088327
H      7.937487    1.098144    3.713101
H     -7.508065    0.645153   -1.665396
H     -7.398657    2.368675   -0.965983
H     -8.432153    1.141147   -0.262410
H     -8.070212   -1.066257    1.334105
H     -7.524660   -2.312395    2.581055
H     -8.400820   -2.789599    1.126336
H      0.682540    3.086429    3.129968
H      2.795366   -3.496816   -0.452033
H      2.878109   -3.672310    1.368230
H      1.678023   -5.506669   -0.505008
H      1.686692   -5.586526    1.258255
H     -0.439009    2.338184    0.989100
H      1.343337    2.673425    0.698923
H      0.617628   -2.583550    1.525870
H      1.806749   -1.515226    0.763710
H      7.124830   -0.998848   -1.801088
H      6.698254   -2.274576   -0.513407
H      8.179690    0.263329   -0.019663
H      8.920293   -1.386534   -0.379742
H     -0.504979   -5.673081    0.233224
H     -0.390573   -4.342557    1.400638
H     -4.344400    3.889159    1.107880
H     -2.936679    3.204035    1.865707
H     -0.788224    5.964758   -0.352541
H     -3.457432    0.573636    0.953530
H     -4.619147    1.743801    1.593500
H      3.847435    0.715917   -0.292407
H     -4.653355   -2.872645    2.458535
H     -3.585208   -1.514373    2.078023
H      5.392886   -1.858966    1.300923
H      4.644402   -0.219156    1.651428
H      1.079741    3.390387   -3.443174
H      1.924976    4.328480   -2.267216
H     -2.403271    2.067179   -0.339734
H     -2.467640   -3.247189    0.954194
H      1.762074    0.697868   -0.539640
H      6.214169    0.700796   -0.083123
H      0.945661    4.855630   -0.054071
H     -0.390125   -1.627008   -0.492893
H      7.545210   -2.263466    1.584337
H      2.817503    2.681107   -1.088168
H      7.025196    0.693370    1.725274
H     -5.163655    1.001754   -1.303683
H     -5.708054   -0.681758    1.708662
H      2.545046    0.211280   -3.388118
H     -5.665494   -1.181790   -1.122875
H      9.796370   -1.179234    1.477327
H      3.860678    2.665563   -2.901372
H     -4.933679   -2.814518   -2.196542
H     -0.800858   -0.193705   -0.000000
H      0.804713   -0.190871    0.000000
