47

C     -2.497226    0.688957   -1.464274
C     -1.805954    0.405763   -2.712032
C      3.538769   -2.142861    1.523195
C      2.363230   -2.900398    1.076278
C     -2.511138    1.221304    2.189409
C     -2.043454    0.906689   -0.252615
C     -2.997296    1.184968    0.885260
C      3.788936   -0.888810    1.226884
C     -2.185831   -0.966622   -3.229992
C      1.619808    0.643210   -1.010056
C     -0.612873    0.901157   -0.063411
C      2.373440    1.172413    0.131603
C      2.309529   -0.657213   -0.755460
C      5.015642   -0.249468    1.750577
C     -5.042643    1.732315    1.712662
N     -6.304256    2.022530    1.771389
N     -4.261448    1.447618    0.719203
N      0.226019    0.691906   -0.972872
N      2.967710   -0.067337    0.421102
O     -2.998632   -1.693609   -2.600535
O     -1.645292   -1.432761   -4.395506
O     -0.095967    1.144719    1.210104
O      2.443416    2.320258    0.642486
O      5.331172    0.937910    1.521261
O      5.861380   -1.001915    2.536271
S      1.343823   -2.019922   -0.113971
S     -3.961805    1.650301    3.137120
O     -0.000692    0.401333   -0.000000
O     -0.002680    0.376848   -0.000000
H     -3.608324    0.711908   -1.563684
H     -0.758297    0.556646   -2.799119
H     -2.261525    1.141425   -3.477620
H      4.295954   -2.649961    2.161765
H      1.758212   -3.200397    1.986312
H      2.729174   -3.878453    0.672045
H     -1.549785    1.042915    2.624436
H      2.050769    1.089204   -1.961819
H      3.027417   -0.962045   -1.546977
H     -6.730682    2.223515    2.727489
H     -4.710681    1.444002   -0.276752
H     -1.885103   -2.342098   -4.795754
H      0.597698    0.560012    1.664328
H      6.826111   -0.787774    2.711022
H     -0.796102   -0.200982   -0.000000
H      0.796794   -0.200351    0.000000
H     -0.819245   -0.189368   -0.000000
H      0.821926   -0.187480    0.000000
