33

C      5.993491   -0.758410   -0.043815
C      4.570965   -0.204629    0.015715
C      4.345452    1.042874    0.282066
C      3.191191    1.867338    0.413699
C      1.820934    1.514241    0.265184
C      1.171164    0.414933   -0.035372
C     -0.336012    0.415532   -0.102842
C     -0.914730   -0.584892    0.860851
C     -2.400072   -0.524495    0.760413
C     -3.116732   -0.966518   -0.450885
C     -4.528014   -0.851182   -0.650217
C     -5.518379   -0.384947    0.314071
N     -6.466477   -1.168013    0.690086
O     -3.058742   -0.090890    1.715697
O     -5.463566    0.894047    0.840805
O     -3.980696   -2.164238   -0.156528
H      6.091842   -1.454176    0.822947
H      6.736748    0.035161    0.144571
H      6.148547   -1.267465   -1.001497
H      3.767291   -0.885271   -0.170984
H      5.347615    1.607129    0.451275
H      3.238161    2.473584    1.417920
H      3.355052    2.781492   -0.314134
H      1.093191    2.389443    0.436708
H      1.713558   -0.470579   -0.228789
H     -0.771223    1.399925    0.112525
H     -0.688802    0.114057   -1.113366
H     -0.602714   -0.406302    1.912840
H     -0.594087   -1.599984    0.512256
H     -2.479766   -1.300490   -1.301011
H     -4.909698   -0.944465   -1.691884
H     -6.600314   -2.152177    0.354368
H     -6.155178    1.229368    1.533944
