74

C     -3.303032    0.247478    2.452987
C      5.240817   -0.117901    2.032946
C     -0.583388    0.278257   -1.221253
C     -4.976846    0.275250    0.236140
C      0.465492   -2.297083   -1.428392
C     -3.470627    0.614003    0.068718
C      1.815526   -1.727361   -1.270537
C      3.196671   -0.371690    0.231883
C      4.292311   -0.833591   -0.608701
C     -0.678249    1.175939    1.473855
C      0.790192    1.008584    1.121348
C     -0.554991   -2.014717   -0.388954
C     -5.792346    1.023124   -0.747757
C      6.720575   -0.880451   -1.107017
C      7.727589    1.265772   -0.209194
C     -2.764342   -0.178068    1.086725
C      5.790782    0.277744    0.931551
C      1.977812   -0.824019   -0.112280
C      5.522509   -0.473139   -0.297915
C      7.916988   -0.198173   -0.537801
C     -1.312874   -0.161031    1.146412
C      0.860842   -0.407310    0.668735
C      6.724370    1.441214    0.927119
C     -0.500897   -0.573998   -0.003957
C     -7.236576    0.748126   -0.657030
C     -7.897461    1.068279    0.651243
C     -7.650301   -0.654405   -1.046319
F     -9.269225    0.763112    0.562716
F     -7.443267    0.251666    1.683766
F     -7.777099    2.367610    1.041465
F     -9.047130   -0.698515   -0.899706
F     -7.195087   -1.614418   -0.149100
F     -7.380187   -0.962589   -2.346580
O      8.360169   -0.920303    0.567217
O      5.970859    2.580697    0.683297
O     -7.872903    1.588985   -1.613213
H     -4.145922   -0.380097    2.781181
H     -2.496150    0.217526    3.221761
H     -3.659926    1.289067    2.378630
H      4.601705   -0.958199    2.132648
H      5.417856    0.434995    2.969714
H     -1.168306   -0.240876   -2.037332
H      0.431580    0.479043   -1.677223
H     -1.042705    1.258488   -1.098666
H     -5.259816    0.472050    1.302388
H     -5.099211   -0.811124    0.075716
H      0.484799   -3.420975   -1.554570
H      0.085195   -1.954970   -2.440258
H     -3.432236    1.705377    0.264241
H     -3.255924    0.346785   -0.983198
H      2.524707   -2.610907   -1.195280
H      2.193056   -1.197542   -2.195734
H      3.262224    0.328786    1.048777
H      4.140454   -1.458004   -1.481205
H     -0.812272    1.444622    2.541666
H     -1.084608    1.981888    0.802480
H      1.374642    1.154374    2.045210
H      1.141053    1.751471    0.393229
H     -1.560490   -2.212112   -0.828216
H     -0.450828   -2.708647    0.468471
H     -5.426552    0.750367   -1.762596
H     -5.631713    2.115800   -0.546736
H      6.503341   -0.528792   -2.143285
H      6.880024   -1.957876   -1.073089
H      8.698725    1.644304    0.163590
H      7.429679    1.809350   -1.102010
H     -3.094487   -1.252426    0.982377
H      8.728043   -0.234527   -1.312128
H     -1.024150   -0.829918    2.016057
H      0.796661   -1.051634    1.595848
H      7.228922    1.459102    1.907451
H      8.004925   -1.857914    0.513329
H      6.087350    2.854866   -0.247879
H     -8.036323    1.101199   -2.455573
