68

C     -9.167209    0.264499   -0.655411
C     -5.716999    1.298047   -1.144725
C      8.168743    2.293673   -0.687786
C     -8.603876    1.396464    0.153475
C     -7.724037    1.007726    1.268654
C     -6.471024    0.284958    1.039818
C     -1.749320   -0.145720    0.354903
C     -0.607813   -0.107406   -0.326815
C      5.211653   -1.473099    0.840248
C      5.736807   -0.316829    1.622228
C     -4.127340    0.169618    0.454453
C      3.859020   -0.100287   -0.790486
C      2.764027   -0.888580    1.113850
C      1.919193   -1.142612   -1.990332
C      7.942897   -0.977186    1.334585
C     -5.390833    0.965804    0.244191
C      3.877892   -1.234628    0.181650
C      2.363846   -0.011109   -1.119339
C     -2.863610    0.831236    0.018838
C      0.529806   -1.053424   -0.033993
C      1.734152   -0.198137    0.233320
C      0.795658   -1.841571   -1.275804
C      8.309297    0.076944    0.356763
O     -2.827378    1.061988   -1.325704
O      1.098847   -3.184345   -1.009042
O      9.208381   -0.160701   -0.510588
O      7.752758    1.337605    0.291353
O      6.944233   -0.625860    2.193576
H    -10.186601   -0.016688   -0.336897
H     -8.472403   -0.592218   -0.737923
H     -9.292400    0.637855   -1.712527
H     -4.904196    1.091353   -1.906259
H     -6.579537    0.699079   -1.547551
H     -5.911094    2.383181   -1.270866
H      8.273754    3.260876   -0.124803
H      7.325829    2.445648   -1.387870
H      9.101661    1.996105   -1.178247
H     -8.122565    2.118624   -0.513021
H     -9.529490    1.913894    0.593125
H     -8.341908    0.396870    2.000067
H     -7.462468    1.932552    1.893176
H     -5.981346    0.007379    2.031142
H     -6.605957   -0.717408    0.552038
H     -1.872644   -0.866976    1.136209
H     -0.528005    0.637064   -1.107079
H      5.114881   -2.342076    1.515766
H      5.929717   -1.775675    0.039738
H      5.746896    0.630484    1.049956
H      5.017112   -0.146594    2.498009
H     -4.086236   -0.055709    1.556505
H     -4.236426   -0.788457   -0.117586
H      4.098762    0.880453   -0.312082
H      4.474314   -0.241782   -1.686446
H      2.370037   -1.822978    1.552060
H      3.125201   -0.162900    1.857076
H      2.724261   -1.820920   -2.302025
H      1.493217   -0.701618   -2.933235
H      8.859983   -1.241748    1.961905
H      7.740903   -1.947941    0.799411
H     -5.217140    2.007205    0.758842
H      3.654132   -2.160540   -0.421323
H      2.107970    0.982355   -1.539956
H     -2.684436    1.786290    0.576503
H      0.259179   -1.706283    0.812828
H      1.424614    0.789023    0.656997
H     -0.136072   -1.863493   -1.898353
H     -2.426624    0.297540   -1.786023
H      0.767351   -3.448896   -0.112226
