68

C      7.874377    3.434792    1.107682
C      5.067633    1.126626   -1.786646
C     -8.761711    4.303576    0.715623
C      6.450132    2.865166    1.047395
C      6.579929    1.406352    0.765516
C      5.289723    0.666867    0.668898
C      1.511082   -1.179668   -0.825249
C      1.077149   -2.139740   -0.022134
C     -4.063211   -0.272997    0.832314
C     -4.936766   -0.276168   -0.381429
C      3.047437    0.640748   -0.458432
C     -3.078111   -2.542521    0.394048
C     -1.878972   -0.611929   -0.393838
C     -1.824424   -4.220153   -0.857312
C     -5.917704    1.790894    0.122177
C      4.424425    1.212021   -0.430213
C     -2.805340   -1.105641    0.679655
C     -2.431261   -2.854400   -0.921021
C      2.971342   -0.793607   -0.857184
C     -0.333098   -2.552436    0.045722
C     -1.243520   -1.881105   -0.930645
C     -0.412415   -4.040370   -0.329837
C     -7.294730    2.386523    0.272762
O      3.641952   -1.662976   -0.034853
O     -0.141092   -4.846707    0.756474
O     -8.308693    1.678638    0.131177
O     -7.457904    3.731706    0.571281
O     -6.068001    0.471372   -0.166054
H      7.881999    4.522844    1.169256
H      8.409243    3.157667    0.156461
H      8.460960    2.960013    1.920388
H      4.343090    1.527807   -2.523391
H      5.958943    1.786817   -1.817106
H      5.345450    0.101293   -2.069879
H     -9.215508    3.991234    1.667106
H     -8.632295    5.394616    0.678520
H     -9.361746    3.940289   -0.167908
H      6.016791    3.060842    2.058648
H      5.929985    3.441246    0.281438
H      7.234239    1.279522   -0.116561
H      7.153977    0.957586    1.623734
H      5.532617   -0.409708    0.521290
H      4.737033    0.831734    1.625258
H      0.788077   -0.682524   -1.452869
H      1.766681   -2.673308    0.635009
H     -4.659458   -0.669943    1.677006
H     -3.800809    0.779161    1.084689
H     -4.441634    0.142637   -1.286797
H     -5.304519   -1.324602   -0.602200
H      2.536035    0.768035    0.516306
H      2.452289    1.226862   -1.192447
H     -2.662541   -3.179905    1.205335
H     -4.158954   -2.782380    0.315446
H     -1.110520    0.085721   -0.002093
H     -2.466037   -0.184950   -1.216326
H     -2.390961   -4.822396   -0.115359
H     -1.842603   -4.649906   -1.872959
H     -5.395445    2.391257   -0.624463
H     -5.383844    1.926845    1.099960
H      4.305688    2.314574   -0.214258
H     -2.249770   -0.997885    1.648856
H     -3.090132   -2.699376   -1.787643
H      3.274470   -0.934935   -1.927828
H     -0.770602   -2.436183    1.062561
H     -0.833712   -1.775568   -1.944177
H      0.272747   -4.267435   -1.171948
H      3.907012   -2.475935   -0.532758
H      0.485538   -4.356524    1.344340
