35

C     -0.225987    2.512402   -0.341175
C      0.181694    1.542507   -1.139832
C      1.083790   -1.338455   -1.507310
C      3.309706   -1.193373   -0.655852
C      1.629909   -0.187382    0.612426
C     -0.020919   -0.829308   -1.907515
C     -1.843428   -0.926450    0.368932
C     -2.925202    0.930458   -0.553630
C      4.280711   -0.883577    0.261154
C      2.604095    0.143378    1.567127
C     -2.922928   -1.145318    1.200014
C     -4.007002    0.723141    0.269131
C      1.953967   -0.853340   -0.509298
C     -0.649466    0.377774   -1.446582
C     -1.787354    0.107574   -0.538587
C      3.912405   -0.197557    1.398462
C     -4.027294   -0.322331    1.165239
O      4.900082    0.124028    2.340501
O     -5.127541   -0.532030    2.001145
H     -1.187029    2.549930    0.156947
H      0.416740    3.378626   -0.125517
H      1.164696    1.626337   -1.577423
H      1.396441   -2.322752   -2.018356
H      3.618156   -1.739893   -1.561132
H      0.637469    0.099043    0.916750
H     -0.589108   -1.385619   -2.719004
H     -0.971604   -1.585935    0.401018
H     -2.927458    1.749799   -1.251319
H      5.325842   -1.162974    0.109936
H      2.351045    0.685312    2.479212
H     -2.918386   -1.976922    1.900298
H     -4.886867    1.358769    0.258305
H     -1.248782    0.802190   -2.406960
H      5.384291    1.004972    2.244462
H     -5.884681   -1.133022    1.668039
