83

C     -6.642137   -2.379716    1.859266
C     -5.505724    0.402835    2.144933
C     -1.121277    3.740745   -2.334690
C      0.124333    0.615063   -2.511301
C      5.074256    2.665363   -1.473320
C      0.586638   -1.256217    2.017898
C     -2.533340   -3.061308   -1.029149
C      7.432392   -0.412976    0.168043
C      6.177066   -0.189677    2.111605
C     -5.905877   -2.342350    0.553858
C     -4.230343    1.022904    0.203054
C     -4.139024    2.074906   -0.519406
C     -0.779652    1.938939   -0.630291
C      4.993296    0.195236   -1.400116
C     -5.344944    0.121324    0.665195
C     -1.749224    2.572593   -1.603951
C     -0.427330    0.564704   -1.097894
C      4.216543    1.433778   -1.701901
C     -0.261362   -0.923786    0.816415
C     -1.889614   -2.939618    0.327183
C      5.041819   -0.197390    0.026617
C     -3.021572    2.945491   -0.963606
C     -4.818760   -1.330362    0.464125
C     -0.612680   -2.221441    0.179656
C      3.868095    0.410218    0.818431
C      0.556481   -0.154560   -0.174655
C     -2.764130   -2.426727    1.389514
C      2.749872    0.484346   -0.179908
N      6.242534    0.200282    0.715842
O     -3.107268    4.240309   -0.798754
O      0.239064   -2.739512   -0.532535
O      3.624602   -0.334290    1.939315
O     -2.543893   -2.921595    2.558829
O      3.055652    1.591256   -0.988992
O     -3.755784   -1.519371    1.318514
O      1.493305    0.706415    0.331741
H     -6.982192   -3.427545    2.109283
H     -7.590450   -1.795555    1.832606
H     -5.972518   -2.102439    2.694511
H     -6.516429    0.224171    2.525995
H     -4.691095   -0.073667    2.717646
H     -5.347436    1.515968    2.264407
H     -0.383966    4.243587   -1.686927
H     -1.973069    4.442658   -2.577256
H     -0.709449    3.432268   -3.314538
H     -0.660881    0.528656   -3.284116
H      0.807370   -0.254748   -2.690900
H      0.645502    1.571173   -2.660965
H      4.752776    3.229174   -0.557077
H      5.026493    3.377967   -2.311962
H      6.135947    2.357615   -1.368756
H      0.941350   -0.383347    2.567063
H      1.408193   -1.937799    1.679310
H     -0.002979   -1.872616    2.743182
H     -3.522086   -3.521254   -1.018781
H     -2.450251   -2.129391   -1.641829
H     -1.887644   -3.794909   -1.604574
H      8.196128   -0.416415    0.973355
H      7.265702   -1.475771   -0.111304
H      7.875431    0.170009   -0.670606
H      5.641364    0.524650    2.747030
H      7.223589   -0.271126    2.524984
H      5.769386   -1.228765    2.171668
H     -5.415552   -3.342189    0.441986
H     -6.584256   -2.261626   -0.321154
H     -3.357564    0.488642    0.754529
H     -5.040449    2.632899   -0.999188
H     -1.210200    1.901985    0.390729
H      0.151378    2.574724   -0.585735
H      4.648477   -0.654247   -2.032480
H      6.052107    0.387883   -1.745690
H     -6.300130    0.112992    0.224535
H     -1.957237    1.814864   -2.394369
H     -1.334583   -0.066488   -1.142000
H      3.952538    1.423599   -2.781148
H     -1.168869   -0.361106    1.125915
H     -1.607218   -3.999194    0.609582
H      4.934543   -1.296355    0.146396
H     -4.441886   -1.362045   -0.592863
H      4.197494    1.461908    1.086204
H      1.110192   -0.868388   -0.858236
H      2.796767   -0.381429   -0.876560
H      3.253642    0.285214    2.639140
