65

C      1.668801   -0.341748    0.055668
C      0.131162    2.510174   -0.952716
C     -4.905931   -0.313279   -2.037274
C     -4.041275   -2.175322   -0.742609
C     -2.141451   -0.812428    1.534840
C     -4.825163    0.184314    1.629734
C      0.608638    0.683890    2.202157
C     -1.012931    0.626221   -1.830268
C     -0.485731    1.541094    1.816519
C     -2.002088   -0.469109   -1.532780
C      2.961783    0.899808    1.694611
C     -5.317627   -0.386372    0.347917
C     -3.643333    1.061541    1.535675
C      4.200620    0.661863    0.938203
C      1.770823    0.456076    1.322154
C     -0.735284    1.531988   -0.696344
C     -1.360410    1.430923    0.662170
C     -3.035827    0.138327   -0.592698
C     -4.263082   -0.674578   -0.677489
C     -2.473421    0.419767    0.756436
O      8.360059   -0.440075   -1.161832
O      8.312150   -3.141891   -1.513790
O      8.118045   -2.053280    0.899264
O      6.621508    0.856034   -0.761647
O      5.135586   -0.285554   -2.546671
O      4.044648   -0.057130   -0.200598
O      6.019143   -1.873101   -0.695897
P      7.704005   -1.892479   -0.543886
P      5.451306   -0.325392   -1.056357
H      1.838149    0.237772   -0.825143
H      0.619904   -0.765154    0.033325
H      2.275567   -1.288159    0.150224
H      0.375788    3.201554   -0.172631
H      0.571514    2.602381   -1.914382
H     -4.607065    0.717149   -2.339799
H     -6.003728   -0.337657   -1.972075
H     -4.582938   -1.026441   -2.807896
H     -4.462217   -2.646406   -1.658315
H     -3.008625   -2.495154   -0.667430
H     -4.590649   -2.690012    0.101505
H     -2.076697   -0.565935    2.621940
H     -3.073148   -1.455007    1.486513
H     -1.351747   -1.444056    1.147265
H     -4.649593   -0.586826    2.418506
H     -5.642915    0.823340    2.085646
H      1.020196    1.069701    3.197010
H      0.295471   -0.365104    2.510487
H     -1.459027    1.196263   -2.700613
H     -0.063113    0.207987   -2.278105
H     -1.163477    1.716307    2.722466
H     -0.013414    2.610868    1.768126
H     -2.547014   -0.803036   -2.440906
H     -1.427647   -1.292796   -1.062568
H      2.983987    1.482225    2.634634
H     -5.864511   -1.323698    0.588775
H     -6.120197    0.306379   -0.047191
H     -3.836657    2.031995    1.068808
H     -3.243981    1.234514    2.561914
H      4.682820    1.660556    0.775688
H      4.869998    0.046868    1.618187
H     -1.946693    2.444160    0.681175
H     -3.262264    1.149964   -1.049244
H      9.255201   -0.269317   -0.795021
H      8.432021   -3.974985   -0.999410
H      6.911979    0.829476    0.195999
