60

C     -4.573441    0.628259    2.615264
C      0.428521   -2.401718    1.659737
C     -3.016420   -1.356801    0.168034
C      4.207883    2.350568   -0.332152
C      2.758196    2.731798   -0.133151
C     -4.470153    1.356289   -1.059757
C     -4.845001    1.543802    0.372495
C      4.388243    0.904182    0.146660
C     -2.961388    1.326256   -1.174226
C      1.930024    1.830448   -1.036978
C     -0.893696    0.648537    0.008854
C     -0.348976   -0.218841   -0.803062
C      3.818660   -1.371775   -0.587170
C     -4.394437    0.327741    1.148789
C      1.671254   -2.230873    0.829858
C      3.460259    0.050849   -0.696734
C     -2.316720    0.960895    0.143458
C      2.043269    0.437014   -0.385299
C      1.093260   -0.541581   -0.950557
C      2.791162   -2.307029   -1.191325
C      1.420747   -1.944273   -0.621436
C      2.988985   -3.623519   -0.480823
N     -3.036144   -0.075154    0.837795
O      3.584827   -4.580335   -0.991571
O      2.382247   -3.465069    0.758141
H     -4.315893    1.691461    2.804080
H     -3.966687   -0.009399    3.270304
H     -5.677664    0.541217    2.823884
H     -0.025748   -1.419829    1.839159
H     -0.262715   -3.148439    1.272641
H      0.790936   -2.754936    2.670132
H     -2.097999   -1.903255    0.366244
H     -3.310792   -1.259293   -0.879076
H     -3.836258   -1.955221    0.669840
H      4.873143    3.040057    0.222814
H      4.396739    2.346748   -1.416932
H      2.418345    2.482026    0.913758
H      2.574001    3.793426   -0.328357
H     -4.896831    0.429241   -1.476318
H     -4.873725    2.180263   -1.716074
H     -5.952974    1.571140    0.437750
H     -4.395872    2.487142    0.738766
H      4.210261    0.800381    1.221841
H      5.423257    0.618174   -0.143752
H     -2.646123    2.360346   -1.425218
H     -2.693342    0.671032   -1.999858
H      2.422169    1.727401   -2.029287
H      0.928474    2.222729   -1.080707
H     -0.184638    1.185591    0.671045
H     -1.044749   -0.774832   -1.458752
H      4.126837   -1.697475    0.426626
H      4.747945   -1.527886   -1.215119
H     -5.057953   -0.512229    0.863694
H      2.321239   -1.520040    1.336725
H      3.669410    0.384115   -1.759966
H     -2.452306    1.883058    0.784956
H      1.889547    0.638676    0.703742
H      1.253534   -0.471466   -2.085101
H      2.818132   -2.388514   -2.270552
H      0.717139   -2.691078   -0.997775
