60

C      5.426150   -0.911065    1.144348
C     -0.751987    3.568657   -0.490514
C      2.602927   -1.663142    0.755343
C     -3.470873   -3.331114    0.225864
C     -2.011719   -3.290802    0.629746
C      4.098124    1.430369   -1.475652
C      4.840419    1.077380   -0.194783
C     -3.693387   -2.245416   -0.790935
C      2.799769    0.636719   -1.547585
C     -1.575760   -1.944147    1.085012
C      0.827610    0.127069   -0.125884
C     -0.045086    0.771919    0.615355
C     -3.780957    0.241490   -1.041671
C      4.438242   -0.323757    0.181499
C     -1.612526    2.414711   -0.889532
C     -3.416397   -0.913797   -0.104202
C      2.277274    0.547886   -0.123159
C     -1.931100   -0.812847    0.144535
C     -1.495510    0.484958    0.723384
C     -3.642338    1.467123   -0.167005
C     -2.233329    1.694921    0.290446
C     -3.894662    2.696790   -0.967301
N      3.084458   -0.295237    0.702013
O     -4.972812    3.316891   -0.968983
O     -2.709118    2.935769   -1.644614
H      5.161438   -0.804754    2.197628
H      5.558738   -2.004129    0.930234
H      6.439966   -0.458994    1.004113
H      0.301588    3.474358   -0.842104
H     -0.817418    3.696437    0.607511
H     -1.105639    4.547806   -0.927883
H      1.878243   -1.805813    1.573516
H      3.496711   -2.295329    1.020872
H      2.244023   -2.007524   -0.218993
H     -4.153095   -3.181637    1.090155
H     -3.667500   -4.343309   -0.174920
H     -1.906097   -3.987957    1.486152
H     -1.411228   -3.708718   -0.192998
H      4.724598    1.157631   -2.334643
H      3.910491    2.517764   -1.495110
H      5.948815    1.150393   -0.338451
H      4.568967    1.743227    0.639078
H     -4.733195   -2.265524   -1.187833
H     -2.962736   -2.397045   -1.610028
H      2.998054   -0.336393   -1.994442
H      2.036589    1.237646   -2.110537
H     -2.094721   -1.739003    2.063470
H     -0.503211   -1.980837    1.322077
H      0.501941   -0.687494   -0.721065
H      0.329231    1.600073    1.211435
H     -4.822579    0.174252   -1.382317
H     -3.048662    0.332591   -1.863452
H      4.506911   -0.938020   -0.760873
H     -1.090729    1.702191   -1.571358
H     -3.976703   -0.818816    0.824498
H      2.321846    1.579142    0.283876
H     -1.467609   -1.040108   -0.836035
H     -1.679325    0.393954    1.840491
H     -4.351194    1.352143    0.677791
H     -2.293923    2.460468    1.112661
