83

C     -6.728849    0.584973    0.482842
C     -5.868041    0.095472   -2.483444
C     -1.192917   -4.157656    0.744376
C      0.718031   -2.370973   -2.032547
C      4.783435   -1.725625    2.374622
C     -0.678627    1.366771   -2.314919
C     -2.127971    2.351906    1.890804
C      5.407320    2.418891    2.041160
C      7.215576    1.163388    1.225146
C     -5.392436    1.331501    0.516822
C     -3.803688   -0.678254   -1.507655
C     -3.749780   -1.535861   -0.535974
C     -0.642996   -1.904130   -0.059121
C      5.338362   -0.785508    0.185818
C     -4.561721    0.564639   -1.780980
C     -1.563163   -3.056522   -0.266659
C     -0.102643   -1.288594   -1.304290
C      4.486640   -1.792351    0.871362
C      0.116446    1.223479   -1.069144
C     -1.972663    1.796615    0.456086
C      5.028874    0.606053    0.631887
C     -3.003709   -2.770564   -0.252429
C     -4.865789    1.619240   -0.858193
C     -0.546541    1.552370    0.188891
C      3.547174    0.753952    0.901820
C      0.835159   -0.137663   -1.015250
C     -2.641554    2.750468   -0.444799
C      2.825730   -0.310280    0.149489
N      5.846000    1.072401    1.734951
O     -3.668733   -3.860729    0.085712
O      0.230069    1.631268    1.161410
O      3.210329    2.052300    0.450058
O     -1.935659    3.687412   -0.907152
O      3.162238   -1.535911    0.693692
O     -3.938853    2.654442   -0.775537
O      1.439985   -0.222938    0.205917
H     -7.354498    0.924377   -0.353271
H     -7.330298    0.833822    1.409349
H     -6.589879   -0.511648    0.540208
H     -6.519281    0.963835   -2.602303
H     -5.630732   -0.341655   -3.470332
H     -6.350150   -0.662599   -1.839456
H     -1.190633   -3.755568    1.776224
H     -0.242446   -4.622393    0.493023
H     -1.992338   -4.917741    0.640880
H      0.107904   -2.873074   -2.811839
H      1.575164   -1.906071   -2.524962
H      1.009329   -3.173019   -1.312760
H      4.979837   -2.747736    2.766731
H      3.910915   -1.358333    2.951552
H      5.679725   -1.120497    2.593637
H     -0.471685    2.365957   -2.769034
H     -0.253315    0.645001   -3.055845
H     -1.754349    1.267721   -2.192514
H     -3.109152    2.875886    1.943231
H     -2.020156    1.561177    2.636481
H     -1.340780    3.134610    1.963898
H      5.334632    3.055917    1.132917
H      6.219464    2.891981    2.657967
H      4.506654    2.419537    2.666177
H      7.291212    0.886201    0.163876
H      7.602454    2.215467    1.292473
H      7.889302    0.467495    1.777215
H     -4.699920    0.898461    1.225317
H     -5.658385    2.339325    0.959309
H     -3.184000   -0.757779   -2.486812
H     -4.412311   -1.447920    0.420934
H     -1.131000   -1.118657    0.544519
H      0.256742   -2.195378    0.568152
H      6.430800   -0.968997    0.338838
H      5.129154   -0.852995   -0.914931
H     -4.075904    1.100169   -2.677500
H     -1.238423   -3.538232   -1.242667
H     -0.862312   -0.992741   -2.034528
H      4.714937   -2.841089    0.538752
H      0.985674    1.949817   -1.156119
H     -2.459678    0.822286    0.512837
H      5.312736    1.280916   -0.234232
H     -5.786612    2.187444   -1.310140
H      3.322434    0.750999    2.001357
H      1.578243   -0.142646   -1.866582
H      3.189872   -0.296097   -0.898310
H      3.426021    2.160485   -0.499667
