56

C      7.577050    2.127548    1.590431
C     -0.615988   -2.695422    0.405493
C      4.127402   -2.321210   -3.286856
C     -5.572550    1.737097   -2.424611
C     -3.002336   -0.976307    3.756705
C     -5.933688    2.424900    2.205211
C      6.204626    1.578950    1.354409
C      5.977001    0.781738    0.329655
C      3.559771    0.481663    0.843597
C      2.305396   -0.079306    0.544787
C      4.455578   -0.610070   -1.025566
C     -3.591799    0.339035   -1.029471
C     -2.762625   -0.549147    1.028859
C     -0.282877   -1.301528   -0.162151
C      4.656266    0.232709    0.073087
C     -2.607005   -0.360389   -0.314840
C      2.099632   -0.905738   -0.529096
C      3.236812   -1.156457   -1.317769
C     -4.695196    0.821984   -0.369551
C     -3.871708   -0.068398    1.713483
C     -1.411014   -0.853225   -1.080343
C     -4.823562    0.611470    1.002652
O     -0.941369    0.324743   -1.721720
O      3.064680   -1.992068   -2.417442
O     -5.705839    1.521525   -1.014357
O     -4.015563   -0.267118    3.070584
O     -5.945787    1.107126    1.650624
O      0.905049   -1.485332   -0.876972
H      7.487330    3.225174    1.520718
H      8.258768    1.806495    0.765183
H      7.944580    1.849131    2.588566
H     -1.653979   -2.949456    0.176300
H     -0.321480   -2.777164    1.452279
H     -0.006734   -3.481069   -0.132369
H      3.717483   -2.761838   -4.216228
H      4.770435   -1.427934   -3.496892
H      4.718841   -3.137723   -2.791109
H     -6.359502    2.420976   -2.792166
H     -4.564646    2.161759   -2.666139
H     -5.653425    0.792258   -2.992281
H     -2.803781   -1.973675    3.276601
H     -3.197366   -1.080415    4.827375
H     -2.047190   -0.402662    3.635981
H     -5.166951    3.028485    1.649756
H     -6.886051    2.936530    2.070296
H     -5.594100    2.411707    3.258957
H      5.433462    1.864953    2.051144
H      6.825225    0.554718   -0.314508
H      3.635122    1.130726    1.720282
H      1.490885    0.164454    1.199247
H      5.338622   -0.805605   -1.639157
H     -3.487562    0.501025   -2.100244
H     -1.980664   -1.089727    1.593223
H     -0.182321   -0.655883    0.699931
H     -1.661004   -1.587309   -1.849741
H     -0.444353    0.813300   -1.012920
