33

C      5.775712   -1.199211    0.178123
C      4.911473   -0.041409   -0.216416
C      4.198449    0.592893    0.706956
C      3.331137    1.740588    0.364852
C      1.900090    1.430019    0.729236
C      0.933224    1.419697   -0.180521
C     -0.462665    1.120642    0.151430
C     -1.027548   -0.086430   -0.575235
C     -2.429605   -0.231888   -0.117700
C     -3.534219    0.042050   -1.042717
C     -4.803686   -0.688414   -0.829404
C     -5.076321   -1.402248    0.416152
N     -5.258242   -2.683628    0.417375
O     -2.637604   -0.576257    1.018967
O     -5.159517   -0.780706    1.661170
O     -4.676044    0.746660   -0.602579
H      6.491222   -0.824986    0.937930
H      6.324464   -1.557774   -0.703861
H      5.190208   -2.045415    0.568976
H      4.838245    0.311126   -1.245118
H      4.235963    0.279524    1.746660
H      3.598144    2.653233    0.926656
H      3.426235    1.947805   -0.703335
H      1.620400    1.205532    1.742367
H      1.208705    1.644239   -1.203531
H     -1.135796    1.979008   -0.142769
H     -0.652297    0.965743    1.220816
H     -0.452814   -1.006173   -0.281687
H     -0.985611   -0.002536   -1.660627
H     -3.291892    0.360532   -2.095968
H     -5.456653   -0.874128   -1.709817
H     -5.227918   -3.275491   -0.415412
H     -5.715238   -1.162596    2.429190
