58

C      3.547152   -0.068298   -0.608964
C      3.672503    0.126550   -3.076286
C     -5.120666    0.542047    1.553637
C      1.538494   -1.138497    3.134240
C      1.082277   -0.061632    0.959430
C      3.980020    0.139633    0.608979
C      4.266896    0.544327   -4.239673
C     -6.017668   -0.059642    2.391668
C      2.401599   -1.493178    4.148889
C     -0.209617   -0.343936    0.915745
C      5.399386    1.120246   -1.825259
C     -6.477862    0.155218   -0.321822
C     -4.338677    1.317022   -0.670391
C      4.238243    0.412326   -1.829602
C     -5.314880    0.668018    0.196215
C      2.026491   -0.518916    1.961476
C      3.358943   -0.288879    1.854987
C      5.435726    1.254587   -4.184522
C     -7.204087   -0.582065    1.858221
C      3.750619   -1.261868    4.061567
C      6.018813    1.552315   -2.967115
C     -7.425417   -0.470394    0.503254
C     -3.286811    0.385941   -1.233887
C     -1.079821    0.175947   -0.149990
C      4.236172   -0.656883    2.910232
C     -3.849096   -0.699971   -2.052778
O      6.056942    1.687946   -5.331794
O     -8.083117   -1.179788    2.726897
O      4.613010   -1.615301    5.081754
O      7.223585    2.284891   -2.921008
O     -8.591376   -0.982861   -0.026664
O     -0.548730    0.900239   -1.019746
O      5.587319   -0.416678    2.801399
O     -4.625565   -0.438619   -2.986590
O     -3.515506   -2.004373   -1.784979
O     -2.412670   -0.090768   -0.230769
H      2.668774   -0.679695   -0.768115
H      2.734359   -0.444244   -3.099721
H     -4.207799    0.940892    1.982566
H      0.484542   -1.329022    3.228611
H      1.408208    0.633746    0.198796
H      4.916365    0.722873    0.642965
H      3.826966    0.321848   -5.217112
H     -5.850381   -0.150193    3.454400
H      2.036616   -1.967946    5.050572
H     -0.609232   -0.975780    1.688978
H      5.877134    1.367647   -0.894912
H     -6.737065    0.196982   -1.363095
H     -3.770936    2.066990   -0.049840
H     -4.784937    1.906274   -1.498400
H     -2.654963    1.009382   -1.918441
H      6.904623    2.202579   -5.290581
H     -8.948944   -1.588374    2.502486
H      5.604571   -1.430647    4.986333
H      7.591692    2.465043   -1.998334
H     -9.262927   -1.424626    0.546895
H      6.032578    0.001945    2.023712
H     -3.591865   -2.740380   -2.459167
