50

C     -2.641985   -3.417660   -0.405603
C     -2.454240    0.180951    1.491777
C     -1.578836   -3.036642    0.577322
C      3.363422    2.101689    0.319401
C      3.283690   -1.385702    0.763243
C      4.449639    1.092044    0.082302
C      4.198127   -1.156143   -0.422703
C     -1.357669   -0.852567   -0.428178
C      0.836011    2.317582   -0.025207
C     -3.392713    1.910400   -1.367685
C     -2.461077    0.056603   -0.029509
C     -0.987690   -1.874888    0.577490
C      2.182972    1.640146   -0.077638
C      1.975390   -0.852174    0.173653
C      2.384269    0.300565   -0.603653
C      0.042780   -1.560974    1.563939
C     -0.983414    1.468841   -1.484425
C     -2.186401    1.427510   -0.593334
N      3.813654    0.167697   -0.837862
O     -4.478937    1.954392   -0.517424
O     -0.053868   -2.115919    2.710378
O     -1.093590    0.813894   -2.556337
O     -1.961013    2.342166    0.458446
O      0.168460    2.132986   -1.231543
O      1.098822   -0.675446    1.247435
H     -3.599374   -2.893867   -0.208246
H     -2.295154   -3.324282   -1.455489
H     -2.847551   -4.494911   -0.245402
H     -1.454848    0.384699    1.872491
H     -2.958858   -0.700059    1.938637
H     -3.130583    1.055441    1.719479
H     -1.262915   -3.756496    1.350064
H      3.531157    3.092206    0.763775
H      3.168450   -2.466755    0.978633
H      3.572634   -0.811464    1.659570
H      5.242852    1.620907   -0.504197
H      4.833710    0.640419    0.989210
H      3.980223   -1.943833   -1.163045
H      5.237925   -1.195268   -0.044792
H     -0.456750   -0.218018   -0.537259
H     -1.587848   -1.414840   -1.363166
H      0.273098    1.740248    0.764300
H      0.878168    3.340797    0.315145
H     -3.142345    2.912331   -1.784712
H     -3.596273    1.156693   -2.150366
H     -3.461330   -0.257936   -0.394311
H      1.635971   -1.659817   -0.526695
H      1.902823    0.280813   -1.627360
H     -4.471077    2.679915    0.131280
H     -2.157908    3.253727    0.138174
