33

C      3.544734    0.284243   -1.408227
C      1.183199   -0.022310   -0.918273
C      4.886212    0.376742   -1.067043
C      0.140608   -0.233058   -0.131347
C      2.921018   -0.073726    0.822124
C     -4.498649    0.410354    0.458487
C      2.547752    0.059310   -0.477107
C      5.231216    0.237627    0.256326
C      4.262377    0.012643    1.209710
C     -3.624699   -0.603091   -0.247908
C     -4.099345    1.799140    0.202825
C     -1.214244   -0.303683   -0.648152
C     -4.139961   -1.944810    0.098303
O      6.581543    0.332458    0.586708
O      4.665590   -0.118409    2.517194
O     -3.116553    2.033743   -0.541945
O     -4.812894    2.828128    0.787083
O     -1.388636   -0.159096   -1.878206
O     -5.325731   -2.304862   -0.165041
O     -3.304712   -2.844927    0.732189
O     -2.281265   -0.522111    0.177530
H      3.269714    0.394484   -2.458307
H      0.930387    0.092126   -1.981353
H      5.605319    0.553138   -1.846057
H      0.307024   -0.353386    0.909207
H      2.210421   -0.249631    1.604023
H     -5.547168    0.293143    0.116579
H     -4.474945    0.184070    1.545672
H     -3.681629   -0.456008   -1.365360
H      7.302636    0.495419   -0.088843
H      4.019100   -0.281943    3.255110
H     -4.477707    3.794187    0.787411
H     -3.620710   -3.709906    1.132665
