62

C      6.446559   -0.361398    0.687313
C      6.906227    1.409017   -2.636527
C     -5.791398    0.727285   -1.531580
C     -3.572820    0.793229    2.445140
C     -5.794456    0.793271    1.487076
C     -3.771748   -1.601974   -2.426454
C      7.009931    0.335688   -0.493335
C      0.217936    0.061561    1.871077
C      2.575828   -1.890064   -0.287808
C      1.289431   -0.509817    2.770741
C      1.860242   -2.017836    1.017096
C      0.032795    1.061607   -0.409661
C      6.262779    0.716267   -1.491223
C     -4.417325    0.210949   -1.233879
C      0.758346    0.446319    0.742095
C      2.759149   -0.395134   -0.481906
C      2.222758    0.178095    0.804308
C      4.822673    0.476851   -1.503398
C     -2.328379    0.335769   -0.090494
C     -4.375632    0.261699    1.285414
C     -3.774439    0.722224    0.017172
N      2.319721   -0.878685    1.784044
O      4.130832    0.861115   -2.489949
O     -2.005632   -0.876558   -0.017304
O     -4.368911   -1.139921    1.416268
O     -3.812341    2.125528   -0.003091
O     -4.451354   -1.165829   -1.317382
O     -1.312429    1.233976   -0.273196
O      4.155608   -0.156233   -0.483344
H      7.260144   -0.637714    1.391462
H      6.000761   -1.324592    0.350806
H      5.726764    0.282711    1.196832
H      7.170281    0.593004   -3.370596
H      7.865550    1.874556   -2.326999
H      6.202294    2.106558   -3.094318
H     -6.042590    0.514955   -2.617067
H     -6.611747    0.314200   -0.966670
H     -5.841993    1.833725   -1.474957
H     -2.791110    1.469366    2.056163
H     -4.206450    1.401708    3.134710
H     -3.071997   -0.015082    3.021303
H     -6.002178    1.699089    0.887464
H     -6.555601   -0.006491    1.380120
H     -5.940488    1.148809    2.553724
H     -3.788375   -2.728978   -2.490101
H     -4.375899   -1.291430   -3.329204
H     -2.767052   -1.220915   -2.582597
H      8.092226    0.537944   -0.528130
H     -0.834703    0.111995    2.200851
H      3.533303   -2.431150   -0.209603
H      1.982410   -2.285151   -1.145829
H      1.651843    0.268720    3.440167
H      0.868264   -1.397495    3.241053
H      0.763329   -2.010118    0.866564
H      2.174131   -2.940418    1.541145
H      0.493531    2.081858   -0.577084
H      0.258725    0.484724   -1.359222
H     -3.777193    0.566979   -2.098452
H      2.254432   -0.023139   -1.381516
H      2.740423    1.103092    1.094573
H     -3.489935   -1.387074    1.752247
H     -2.935050    2.447212    0.285947
