50

C      1.095191    4.108190    0.723105
C      3.771269    0.483379    0.020525
C      2.715434   -2.194585   -1.240660
C      1.626951    2.736617    0.941689
C     -2.494701   -2.229302    0.636635
C     -3.738748   -1.418062    0.515582
C      1.570835    0.358923    1.248525
C     -4.126674    0.469814   -0.798954
C     -0.276135   -2.420687   -0.619876
C      2.388530   -0.129787    0.090067
C      0.878895    1.650979    1.028699
C     -1.625869   -1.916001   -0.310381
C     -3.004862    1.306018   -1.304362
C     -2.240148   -0.878046   -1.121217
C     -1.722928    0.520449   -0.940140
C     -0.572373    1.806583    0.912395
C      1.603338   -2.318100    0.986838
C      2.606369   -1.643314    0.161354
N     -3.653364   -0.870238   -0.827763
O     -3.028199    2.521749   -0.587810
O     -0.989057    2.913996    1.445222
O      1.808202   -2.457297    2.244569
O      3.854792   -1.910892    0.780946
O      0.425916   -2.831834    0.522095
O     -1.360149    0.885127    0.314389
H      0.343517    4.022044   -0.116804
H      1.861350    4.794173    0.347339
H      0.663300    4.555458    1.628856
H      3.813547    1.369887   -0.634848
H      4.094297    0.706516    1.042299
H      4.446224   -0.271759   -0.463886
H      3.773144   -2.468306   -1.476241
H      2.473082   -1.412119   -2.017997
H      2.108022   -3.111240   -1.395864
H      2.709478    2.661157    1.033840
H     -2.367463   -2.972208    1.422690
H     -3.780808   -0.597472    1.240380
H     -4.650318   -2.049627    0.543751
H      0.865720   -0.453926    1.518695
H      2.280779    0.422468    2.125981
H     -4.448791    0.768680    0.235932
H     -5.016310    0.550102   -1.466319
H      0.245624   -1.622472   -1.186874
H     -0.280679   -3.295353   -1.307459
H      1.824883    0.128085   -0.838145
H     -3.055522    1.518149   -2.371232
H     -2.156519   -1.203246   -2.200700
H     -1.016532    0.690469   -1.774765
H     -3.977964    2.761641   -0.473414
H      3.735425   -2.034781    1.763317
