49

C     -2.803266    3.516097    0.435921
C     -2.705223   -0.429914   -1.841484
C     -3.584676   -1.682452    0.346372
C     -1.598206    3.308201   -0.441650
C      3.250713   -2.114389    0.868862
C      2.723433    1.261279    0.505628
C      4.432266   -1.804925    0.008466
C      3.914405    0.332401    0.768940
C     -1.834974    0.993580    0.012652
C      0.819117   -1.486330    1.009183
C     -1.738339   -0.337607   -0.655901
C     -1.108229    2.082866   -0.661562
C      2.187901   -1.443277    0.419147
C      2.238525    0.775496   -0.814390
C      2.616326   -0.692737   -0.734717
C      0.075876    1.930721   -1.534443
C     -1.268081   -2.575663    0.266608
C     -2.105788   -1.376019    0.398726
N      4.048472   -0.479702   -0.428371
O     -0.026676    2.749361   -2.540605
O     -1.786163   -3.696442    0.153154
O     -1.848550   -0.846949    1.685814
O      0.094738   -2.437612    0.270612
O      1.036730    1.081553   -1.269306
H     -2.821743    4.548798    0.835652
H     -2.684534    2.815505    1.308424
H     -3.742872    3.358080   -0.108871
H     -2.298006    0.267227   -2.613063
H     -3.706810   -0.088035   -1.585404
H     -2.650736   -1.440765   -2.261510
H     -3.808898   -2.470086    1.082025
H     -3.955243   -1.895271   -0.661534
H     -4.106016   -0.741898    0.679395
H     -1.180619    4.212431   -0.866281
H      3.325159   -2.793886    1.715503
H      3.143217    2.284262    0.367578
H      1.983177    1.207131    1.301260
H      5.355383   -1.809305    0.620405
H      4.506407   -2.509280   -0.844518
H      3.658907   -0.288008    1.656850
H      4.842354    0.905503    0.914035
H     -1.505499    0.988264    1.070362
H     -2.935862    1.237746    0.046838
H      0.822795   -1.858999    2.064476
H      0.373940   -0.502041    1.055381
H     -0.769305   -0.614798   -1.047418
H      3.027884    1.164769   -1.551125
H      2.504950   -1.203791   -1.708672
H     -2.408361   -1.401090    2.302553
