45

C     -1.010198    1.877254    0.987317
C     -0.490979   -2.897745   -0.749566
C      0.321611   -1.714471   -0.323144
C     -1.322777   -3.436464    0.415453
C     -2.720654    0.384112   -1.345122
C     -2.430390    1.827032   -1.050194
C      1.572628   -1.426801   -0.311213
C     -2.354342   -2.478920    0.899042
C     -3.334821   -0.315347   -0.175508
C      3.430025   -0.390803    1.044235
C      4.081272    1.840505    0.902421
C     -1.038116    2.078221   -0.513371
C      2.382567   -0.252477    0.107582
C     -3.115021   -1.780743   -0.164643
C      4.253299    0.610029    1.434678
C      3.100210    2.086249   -0.012381
C      2.250647    1.041084   -0.407389
C      1.226557    1.437176   -1.385030
O     -3.583327   -2.435057   -1.072593
O      5.248104    0.369561    2.360344
O      2.960507    3.364100   -0.542390
O      1.734191    1.955711   -2.464362
O     -0.138689    1.300511   -1.233305
H     -0.686434    0.900863    1.326256
H     -2.007270    2.201091    1.408872
H     -0.301110    2.623835    1.465314
H     -0.107730   -3.701466   -1.324055
H     -1.298463   -2.455801   -1.441426
H     -0.541002   -1.048276    0.074682
H     -1.800242   -4.357414    0.046962
H     -0.633545   -3.656457    1.249664
H     -1.815495   -0.133328   -1.658324
H     -3.435537    0.271933   -2.202756
H     -2.543716    2.370173   -2.034765
H     -3.199370    2.291791   -0.396554
H      2.410719   -2.164442   -0.657458
H     -3.045219   -3.071534    1.568161
H     -1.890227   -1.730855    1.602810
H     -2.867696    0.076138    0.766787
H     -4.412939   -0.053566   -0.094840
H      3.560441   -1.389146    1.456517
H      4.731685    2.637549    1.210999
H     -0.911475    3.193817   -0.628123
H      6.188588    0.074921    2.100105
H      3.583735    4.077457   -0.239687
