31

C      4.865452    0.806940    1.410635
C     -5.359321    0.039006    0.245370
C     -4.865005    1.300405   -0.008161
C     -4.532867   -1.043487    0.262820
C     -3.532882    1.513561   -0.250797
C     -3.183967   -0.848531    0.020017
C     -1.293830    0.645164   -0.488972
C     -0.417997   -0.319939   -0.495716
C      1.758337   -0.191409    0.531038
C      3.637138   -1.084482   -0.681783
C     -2.687904    0.406915   -0.232974
C      1.046344   -0.029003   -0.770236
C      3.174202   -0.557258    0.411324
C      2.774000   -1.328415   -1.816258
O      3.283540   -1.842867   -2.849146
O      3.999063   -0.308570    1.535751
O      1.436260   -0.992999   -1.729649
H      4.277249    1.741832    1.247093
H      5.460246    0.934566    2.327772
H      5.519776    0.588584    0.520348
H     -6.425216   -0.091985    0.434040
H     -5.578947    2.134057   -0.009203
H     -4.884268   -2.034702    0.456120
H     -3.148472    2.508718   -0.449922
H     -2.518546   -1.693327    0.030367
H     -0.889106    1.647522   -0.692279
H     -0.637421   -1.361324   -0.316670
H      1.627552    0.776730    1.096881
H      1.264888   -0.958181    1.193819
H      4.709371   -1.332359   -0.696985
H      1.122333    0.974840   -1.194405
