34

C     -3.756986    2.165598   -1.078106
C      0.077168   -0.880514    0.113745
C      1.925326   -0.637659   -1.454435
C     -0.454734   -0.779622    1.305974
C      3.211969   -0.290801   -1.774777
C      2.248972   -0.008572    0.815525
C     -2.797487   -0.033413    1.421662
C     -3.575565   -0.762607   -0.798219
C      5.691629    1.146345    0.463900
C      1.444833   -0.496738   -0.161554
C     -1.873428   -1.202672    1.483320
C     -3.528362    0.131370    0.167959
C      4.012239    0.200964   -0.776595
C      3.561402    0.347802    0.499887
C     -2.852385   -2.011480   -0.620691
O     -2.841683   -2.920090   -1.488774
O     -4.227796    1.332513   -0.010814
O      5.322505    0.623975   -0.800072
O      4.582191    0.862501    1.284766
O     -2.144502   -2.211783    0.552915
H     -2.705975    2.465709   -0.931653
H     -4.363299    3.100459   -1.106734
H     -3.914077    1.580077   -2.013837
H     -0.509549   -1.267953   -0.734727
H      1.286420   -1.031311   -2.255847
H      0.085679   -0.410441    2.140855
H      3.563246   -0.408304   -2.782782
H      1.941518    0.126648    1.838189
H     -3.551123   -0.128235    2.244289
H     -2.225772    0.893290    1.661670
H     -4.138752   -0.591695   -1.720957
H      5.876278    2.223252    0.326522
H      6.550958    0.580460    0.844735
H     -1.920856   -1.707074    2.495353
