35

C      4.790285    0.172994   -0.854817
C     -5.528640    0.537934    1.012052
C      4.293148   -1.067633   -0.179534
C     -1.512707   -0.813113   -0.787686
C     -0.380250   -1.406931   -1.089180
C     -1.195861    2.313094   -0.100177
C      2.996058   -1.329394   -0.097705
C     -1.374592   -0.072096    0.485844
C     -1.934644    1.273854    0.261538
C      0.062345   -0.100516    0.805278
C      1.883110   -0.497780   -0.623967
C     -3.357085    1.478173    0.442901
C      2.396608   -2.490226    0.527462
C      0.832639    1.128194    0.523498
C      0.634079   -1.144014   -0.078543
O     -3.918716    2.594187    0.272783
O      3.027977   -3.504863    0.919583
O     -4.142525    0.401398    0.820751
O      0.163866    2.085884   -0.265901
O      1.996226    0.764898   -0.108221
O      1.044387   -2.305439    0.621393
H      4.796735    1.010956   -0.135723
H      4.213896    0.371588   -1.760582
H      5.863998   -0.024484   -1.111509
H     -6.009671   -0.369802    0.572270
H     -5.842750    1.460371    0.453996
H     -5.801684    0.688806    2.062073
H      4.989506   -1.789644    0.263591
H     -2.458225   -0.845959   -1.387669
H     -0.260171   -2.025101   -2.015967
H     -1.587136    3.299475   -0.267711
H     -1.960746   -0.533362    1.307984
H      0.209368   -0.365082    1.887425
H      1.932180   -0.532674   -1.728177
H      1.138992    1.636308    1.482391
