55

C      8.492941    0.887404    1.762154
C     -3.836614    0.206398    2.215977
C      2.448530   -1.717442   -1.444105
C     -1.141656   -1.934729   -0.537556
C     -3.372496   -2.029378   -1.711426
C     -8.222282    1.526249    0.146440
C      7.420623    0.424908    1.142688
C      6.359549   -0.164812    1.900186
C      5.264776   -0.646829    1.365528
C      4.989797   -0.642707   -0.074842
C     -4.118779    0.427047   -0.157727
C      2.127226    1.777084   -0.058423
C     -4.669955    0.504801    1.036705
C      2.631070   -0.301392   -0.981913
C      3.737784    0.139886   -0.392555
C     -2.690416    0.046936   -0.304740
C      3.592220    1.548653   -0.066815
C      1.667010    0.787422   -1.103736
C     -2.092454    0.244031   -1.640421
C     -6.064744    0.878265    1.142647
C     -0.681872    0.621660   -1.819370
C     -2.301116   -1.162618   -1.080548
O      4.457276    2.421009    0.164336
O     -6.570666    0.946026    2.298441
O     -0.356893    1.187603   -2.902053
O     -6.875280    1.163452    0.079266
O      0.319675    0.414470   -0.911612
H      8.546836    0.810838    2.828972
H      9.315214    1.338441    1.237031
H     -3.270688    1.093124    2.571676
H     -4.534630   -0.047606    3.063994
H     -3.179146   -0.659430    2.084209
H      1.726184   -1.677662   -2.285973
H      2.058464   -2.283496   -0.591001
H      3.389043   -2.148014   -1.814635
H     -1.552201   -2.854156   -0.051252
H     -0.623320   -1.366072    0.261704
H     -0.404418   -2.192421   -1.314563
H     -2.965364   -2.604769   -2.566277
H     -4.222236   -1.415502   -2.081477
H     -3.768889   -2.685621   -0.924959
H     -8.409571    2.541091   -0.262813
H     -8.630897    1.496573    1.186231
H     -8.862488    0.840254   -0.480769
H      7.387204    0.514649    0.050960
H      6.475158   -0.214049    2.999134
H      4.523168   -1.071376    2.025460
H      5.795069   -0.254577   -0.707667
H      4.838765   -1.706880   -0.454245
H     -4.698175    0.639647   -1.071923
H      1.746681    1.473330    0.942889
H      1.853905    2.818879   -0.307211
H     -2.084207    0.304841    0.610035
H      1.834097    1.276083   -2.086693
H     -2.796812    0.480485   -2.472404
