39

C     -2.969569   -1.503445    1.980312
C     -0.142455    2.235687    1.746073
C      3.025527   -1.070753    0.119599
C      2.415876   -0.872617   -2.322077
C     -2.176760    1.255140   -0.539356
C     -2.666247    0.486483    0.532505
C     -0.954154    2.031763   -0.560573
C     -1.457148   -1.419958   -0.142483
C     -0.001882   -1.315029    0.247510
C      2.148322    1.073060   -0.725456
C     -2.378633   -0.772182    0.788113
C      0.024152    1.698296    0.539757
C      1.141966    0.808252    0.333057
C      0.686001   -0.337368   -0.590140
C      2.137562   -0.463655   -0.897770
H     -2.846154   -2.582396    1.744884
H     -4.076472   -1.335074    2.022383
H     -2.453532   -1.237098    2.905203
H     -0.981928    2.914279    1.939974
H      0.506587    2.045948    2.566868
H      2.540142   -1.716262    0.852830
H      3.784989   -1.696586   -0.411302
H      3.637730   -0.315502    0.690048
H      1.495115   -0.700377   -2.908165
H      2.675046   -1.958281   -2.295849
H      3.257745   -0.265307   -2.712613
H     -2.987503    1.994943   -0.854425
H     -2.168153    0.614336   -1.485176
H     -3.361014    0.957135    1.248311
H     -1.211902    3.088678   -0.325796
H     -0.432192    2.133134   -1.530971
H     -1.669792   -2.536495   -0.015960
H     -1.645232   -1.294973   -1.212405
H     -0.015442   -1.057499    1.349590
H      0.546429   -2.286185    0.204864
H      3.137741    1.453540   -0.414640
H      1.691245    1.541390   -1.610437
H      1.594454    0.390035    1.237946
H      0.149537    0.014943   -1.494235
