37

C     -0.190170    2.853604   -0.891329
C     -1.260392   -1.927617   -0.717097
C      3.837744   -0.647859   -0.957464
C      0.341361   -1.508635    1.486634
C     -1.240077    0.018124    2.510463
C     -1.978836    1.240781   -0.744735
C     -2.661066    0.014002   -0.282431
C      1.577250    0.448572   -1.311574
C      1.298142    0.324670   -0.036540
C     -0.773571    1.594587   -0.356759
C     -1.764266   -0.983609    0.357292
C      2.842286   -0.015503   -1.873998
C      0.002745    0.792629    0.576582
C     -0.654516   -0.384250    1.170303
O      3.104508    0.101952   -3.077452
H     -0.423164    2.940249   -1.981149
H     -0.687991    3.753600   -0.428305
H      0.887363    2.947139   -0.698785
H     -0.610294   -1.449502   -1.451523
H     -0.856442   -2.870374   -0.289141
H     -2.183386   -2.247687   -1.284407
H      3.470173   -1.609730   -0.565403
H      4.823845   -0.763461   -1.447143
H      3.938980    0.058628   -0.095562
H      1.030213   -1.138222    2.282996
H     -0.259909   -2.316532    1.974315
H      0.878546   -1.840770    0.597503
H     -1.913986   -0.788910    2.893455
H     -0.426089    0.098705    3.268096
H     -1.818460    0.960586    2.455972
H     -2.498453    1.903043   -1.453779
H     -3.470725    0.283130    0.429943
H     -3.143100   -0.472387   -1.179401
H      0.857271    0.904851   -1.971104
H      1.999505   -0.130271    0.656694
H     -2.411559   -1.624216    1.027434
H      0.336519    1.480680    1.407404
