52

C     -4.423442   -0.878666   -0.407564
C     -3.394418    0.379537    1.340292
C      4.795049    0.231199    0.474252
C     -1.104394    3.853884    1.439006
C     -0.026652   -4.410738   -1.167027
C      1.516245    2.547759    0.010249
C      2.525518   -1.651733    0.326530
C      2.805017    1.810090    0.269249
C      2.875461   -0.585351   -0.672596
C      0.426569    2.127743    0.998873
C      1.724695   -2.788764   -0.241501
C     -1.727112    2.196279   -0.419842
C     -0.806392   -2.315704   -0.551305
C     -1.825196    1.098770   -1.438657
C     -0.918328   -0.915528   -0.230667
C     -3.317132   -0.267770    0.000283
C      3.373117    0.681930    0.035266
C     -0.936614    2.640062    0.503899
C      0.519881   -3.081538   -0.578724
C     -2.133321   -0.266297   -0.857277
H     -5.341849   -0.925039    0.167725
H     -4.422626   -1.366806   -1.376282
H     -2.411962    0.385753    1.854602
H     -4.076974   -0.198819    1.998491
H     -3.823353    1.405178    1.279038
H      5.625624    0.858250    0.306189
H      4.760143   -0.252953    1.467951
H      5.066704   -0.674216   -0.193841
H     -0.164682    4.501113    1.326793
H     -1.895954    4.515136    1.446445
H     -1.006042    3.479689    2.517472
H     -0.851494   -4.789709   -0.473713
H      0.537237   -5.226676   -1.427427
H     -0.611845   -4.150954   -2.119025
H      1.650201    3.666712    0.203361
H      1.109085    2.538632   -0.994353
H      3.498639   -2.020532    0.807632
H      2.079850   -1.109166    1.171347
H      3.280953    2.681782    0.909517
H      3.750084   -1.042453   -1.266107
H      2.143688   -0.533415   -1.427817
H      0.552575    1.096433    1.222800
H      0.675193    2.600365    2.012874
H      2.628239   -3.553541   -0.364609
H     -2.760478    2.699705   -0.667695
H     -1.302812   -2.408284   -1.583230
H     -1.555906   -2.893260    0.093687
H     -2.737818    1.279627   -2.096894
H     -1.029992    0.984347   -2.169705
H     -0.052374   -0.286070   -0.592997
H     -0.902616   -0.772226    0.882472
H     -2.357989   -0.893771   -1.747441
