40

C      5.069246    0.604035    0.236005
C      6.256693    0.496937   -0.444050
C      2.661977    0.416561    0.235893
C      2.695281   -0.342691   -2.360215
C     -3.358419   -2.405886    1.025510
C      3.869211    0.323020   -0.403179
C      1.485309   -0.241168   -1.693218
C      3.883928   -0.062128   -1.719549
C      1.431094    0.143681   -0.367403
C     -2.844629   -1.003152    0.795757
C      6.192880    0.104782   -1.763463
C     -3.600182    0.028078    1.580496
C     -2.832151    1.306789    1.614400
C     -1.774235    1.436309    0.581854
C     -0.992355    0.162341    0.339119
O     -4.683272   -2.531779    0.676834
O      0.291970   -0.522754   -2.336117
O      7.300620    0.012131   -2.373142
O     -4.905919    0.186167    1.153275
O     -2.309163    1.584894    2.894212
O     -2.332876    1.948717   -0.589718
O      5.047291   -0.154092   -2.341638
O      0.354339    0.284273    0.397369
O     -1.502181   -0.885522    1.151748
H      5.094000    0.908884    1.268351
H      7.202468    0.713157    0.041827
H      2.711870    0.730098    1.291102
H      2.707109   -0.650640   -3.412774
H     -3.161618   -2.739612    2.053250
H     -2.774841   -3.078507    0.357049
H     -2.985688   -0.757862   -0.290360
H     -3.649080   -0.351706    2.642960
H     -3.579022    2.137918    1.444294
H     -1.047659    2.223467    0.935952
H     -1.273326   -0.161004   -0.687935
H     -4.812963   -2.265926   -0.260153
H      0.317348   -0.803786   -3.300432
H     -5.472919   -0.500397    1.580317
H     -2.266302    0.767209    3.422241
H     -2.413834    2.939163   -0.562614
