47

C      7.185089    0.432694    0.077093
C     -2.805055   -0.048465   -2.755273
C     -3.328869    1.788939   -1.266980
C     -4.584667   -0.340811    0.630591
C     -4.367237   -0.417202   -0.841225
C      4.678232    0.226163    0.108535
C     -0.878399   -0.669807    1.501126
C      2.422547   -1.198469    0.878001
C      5.779600    0.838837    0.480550
C      0.150033   -0.331536    0.441714
C     -2.142007   -0.167946    0.839548
C      1.228161   -1.352102    0.381646
C     -3.448304    0.298282    1.386075
C      3.521211    0.915434    0.703034
C     -1.987235   -0.169331   -0.477411
C     -0.634451   -0.662575   -0.808562
C      5.424236    1.954572    1.331384
C      0.624747   -2.477567   -0.328416
C     -3.146271    0.302013   -1.313627
O     -3.601268   -0.085860    2.722076
O      6.213274    2.767994    1.874725
O      1.171117   -3.624613   -0.369671
O      2.872473   -0.061970    1.537754
O      4.051058    1.959116    1.435571
O     -0.581516   -2.080713   -0.911879
H      7.636385   -0.202781    0.860687
H      7.118100   -0.136394   -0.852924
H      7.763398    1.356379    0.009326
H     -1.815451    0.404088   -2.965090
H     -2.679424   -1.148451   -2.889418
H     -3.524551    0.388867   -3.464505
H     -2.540161    2.230450   -0.637288
H     -4.306927    2.065644   -0.811401
H     -3.223473    2.279305   -2.264855
H     -5.515708    0.260993    0.827228
H     -4.806696   -1.354983    1.068105
H     -4.265010   -1.504969   -1.120893
H     -5.268999   -0.063351   -1.392021
H      4.657937   -0.667152   -0.550341
H     -0.718491   -0.149416    2.444006
H     -0.933123   -1.755641    1.642851
H      3.124002   -2.019693    0.770004
H      0.509167    0.689399    0.483966
H     -3.559542    1.398912    1.362674
H      2.827580    1.240817   -0.106803
H     -0.201081   -0.170174   -1.700640
H     -4.094429   -0.936929    2.814271
