37

C      0.968220    3.097660    0.578835
C     -3.254097   -1.710785   -0.986632
C      3.703374   -0.734135    0.203919
C     -2.212907    1.022857    0.279184
C     -1.173633    1.953750    0.747935
C     -1.977251   -0.416364    0.775345
C      0.262719    1.451753   -1.208662
C      1.404503    0.472048   -0.981425
C     -0.817641   -1.906197   -0.658920
C     -0.074130    2.132717    0.064198
C     -1.947567   -1.362728   -0.295168
C      2.491130   -1.056960    0.512893
C      1.158822   -0.446705    0.154687
C      0.440050   -1.681095   -0.118864
C      2.039267   -2.193825    1.360049
O      2.789697   -2.853963    2.139057
O      0.661318   -2.378167    1.127703
H      0.638639    4.121379    0.370512
H      1.952810    2.912122    0.151448
H      1.038202    2.903001    1.673533
H     -3.109770   -1.746287   -2.080789
H     -4.031376   -0.985795   -0.746328
H     -3.565496   -2.725130   -0.654959
H      4.508099   -1.347411    0.597298
H      3.970785    0.089144   -0.409000
H     -2.333209    1.031549   -0.837711
H     -3.227389    1.399070    0.627187
H     -1.320379    2.495575    1.667258
H     -2.940535   -0.652048    1.353654
H     -1.244797   -0.364261    1.536521
H     -0.563218    1.027885   -1.761048
H      0.692107    2.257200   -1.878638
H      2.295353    1.091789   -0.815643
H      1.547305   -0.086983   -1.925644
H     -0.937234   -2.633760   -1.511887
H      0.975663    0.082796    1.128064
H      1.192565   -2.259694   -0.783692
