47

C      7.463021   -0.179403    0.201935
C     -4.229198   -0.652655   -1.260967
C     -3.560160   -2.315911    0.383286
C     -4.123459    1.380744    1.031048
C     -4.166443   -0.102817    1.190297
C      4.951559   -0.357684    0.127310
C     -0.401395    1.242051   -0.006902
C      2.407127    0.136325   -1.201795
C      6.065437    0.164682    0.601577
C      0.287049   -0.085007    0.060556
C     -1.863255    0.960404    0.052579
C      1.176771   -0.322325   -1.101477
C     -3.012957    1.886423    0.166812
C      3.774409    0.250693    0.780947
C     -2.094369   -0.346500   -0.012580
C     -0.812777   -1.094472   -0.123546
C      5.724195    1.152678    1.598798
C      0.411688   -1.126322   -2.032560
C     -3.496588   -0.842168    0.031721
O     -3.494811    2.255591   -1.111265
O      6.555575    1.855860    2.264572
O      0.690652   -1.239078   -3.264266
O      2.947169    0.897091   -0.174598
O      4.333355    1.177544    1.680475
O     -0.633831   -1.720950   -1.353774
H      8.044082    0.748765    0.138118
H      7.928868   -0.847461    0.975065
H      7.456241   -0.718657   -0.772556
H     -4.665633   -1.617931   -1.653039
H     -3.553263   -0.311573   -2.095252
H     -5.092463    0.017397   -1.119084
H     -2.632962   -2.812116    0.003891
H     -4.416453   -2.824301   -0.110373
H     -3.659852   -2.493777    1.460384
H     -4.064060    1.826442    2.065051
H     -5.126732    1.702948    0.653237
H     -5.200917   -0.466169    1.351893
H     -3.579601   -0.374047    2.092226
H      4.867283   -1.125629   -0.633499
H     -0.193449    1.813148   -0.930874
H     -0.175127    1.853865    0.911363
H      2.984098   -0.097963   -2.109290
H      0.811452   -0.171203    1.027525
H     -2.677502    2.867087    0.617675
H      3.234987   -0.500793    1.369703
H     -0.709062   -1.830847    0.721584
H     -4.478701    2.388022   -1.010102
