36

C      0.778571    1.864890   -1.967313
C      4.707602   -0.392149    1.400548
C     -3.998487   -2.260998    0.330277
C      2.963799    0.953163    0.061632
C      2.087992   -0.011872    0.156679
C      0.127096   -1.277753   -0.022630
C     -1.214577   -1.759618   -0.333590
C     -0.930533    1.567482   -0.167518
C      0.040338    0.898472   -1.134631
C      4.317442    0.840040    0.665557
C     -3.512000   -1.054466    0.235944
C      0.754556   -0.101871   -0.346969
C     -2.198321   -0.617631   -0.368916
C     -1.868160    0.563139    0.449439
C     -4.120691    0.185938    0.695206
O      5.119678    1.786384    0.549583
O     -5.361840    0.321260    0.969894
O     -3.119553    1.141750    0.768025
H      1.656206    1.377939   -2.433613
H      0.113417    2.067918   -2.892287
H      0.985502    2.858494   -1.509833
H      4.489248   -1.242683    0.705249
H      5.749693   -0.389299    1.710669
H      3.987964   -0.500360    2.244161
H     -3.484196   -3.134119   -0.036106
H     -4.959488   -2.405651    0.794510
H      2.667281    1.834894   -0.449427
H      2.481784   -0.888669    0.729235
H      0.743178   -1.927340    0.555180
H     -1.532983   -2.550876    0.387717
H     -1.200067   -2.228746   -1.336716
H     -1.473442    2.382496   -0.670363
H     -0.316085    1.991494    0.647126
H     -0.591895    0.303624   -1.898882
H     -2.445411   -0.396502   -1.426318
H     -1.443618    0.201226    1.424086
