86

C      4.221551    4.042325   -0.867206
C      6.828463    0.410013   -0.864786
C      5.607982   -0.118972   -2.892355
C     -3.214454    2.897994   -1.743918
C     -4.421032    3.642264    0.236201
C     -0.471024    0.734731    0.454396
C     -0.167879   -2.994258    1.285465
C     -3.674948   -2.334645   -0.193934
C      2.837111   -3.056871   -0.392478
C     -3.351145    1.370132    1.319137
C     -2.898811    0.168664    2.028562
C      4.654119   -0.789622    0.469327
C      4.492430   -0.421905   -0.787134
C     -5.169181   -0.410057   -0.796561
C     -0.088791   -0.477273    2.494179
C     -0.360848   -1.837691   -0.865969
C      4.748062    2.667366   -0.634357
C     -3.716607    1.269745    0.071661
C     -3.700637    0.009498   -0.669972
C     -6.083927    0.816834   -0.651605
C      1.381547   -0.694051    2.202817
C     -2.197682   -0.842405    1.170967
C      3.818381   -1.641483    1.249845
C     -1.722226   -1.336289   -1.148135
C      1.463307   -1.269858    0.788037
C     -5.474575    2.017119   -1.325762
C      5.450965    0.482433   -1.485657
C     -4.190618    2.491503   -0.683905
C     -0.730078   -0.560847    1.138836
C      0.084141   -1.726341    0.555992
C     -2.801103   -1.063329   -0.173889
C      2.553124   -2.313653    0.854501
O      5.014603    2.291322    0.525645
O     -6.370382    1.092421    0.664877
O      2.159821    0.394596    2.420781
O      4.210133   -1.858198    2.453473
O     -2.002411   -1.116417   -2.331039
O     -5.944660    2.562995   -2.283009
O      2.293703   -3.220261    1.910961
O      4.959798    1.769467   -1.664196
H      3.645307    4.321377    0.033128
H      3.656121    4.136388   -1.797335
H      5.079046    4.767694   -0.907528
H      7.595034    0.865522   -1.505783
H      7.117430   -0.658826   -0.736931
H      6.841903    0.945375    0.094162
H      6.600367    0.161967   -3.305892
H      5.459199   -1.202570   -2.884830
H      4.853624    0.351699   -3.579453
H     -3.765487    3.159104   -2.666136
H     -2.639869    3.779187   -1.423626
H     -2.491188    2.100904   -2.006716
H     -4.984457    3.391665    1.151221
H     -3.472704    4.168682    0.415502
H     -5.074036    4.377993   -0.319214
H     -0.918220    1.528466    1.128650
H      0.584281    1.043825    0.384222
H     -0.912983    0.889445   -0.522069
H      0.047925   -2.951568    2.361358
H     -1.199477   -3.397072    1.225617
H      0.412614   -3.794199    0.735104
H     -2.988102   -3.199313   -0.327798
H     -4.199756   -2.485814    0.745999
H     -4.310390   -2.334762   -1.100336
H      2.266770   -2.741780   -1.285967
H      2.587117   -4.156201   -0.259851
H      3.903230   -3.085984   -0.705042
H     -3.380215    2.329290    1.828421
H     -2.288481    0.370521    2.912955
H     -3.838493   -0.321320    2.425176
H      5.539832   -0.376026    0.935388
H      3.644710   -0.797885   -1.319341
H     -5.483886   -1.092702   -0.001994
H     -5.401496   -0.788098   -1.824743
H     -0.261359    0.545227    2.900060
H     -0.506343   -1.189296    3.224110
H     -0.384030   -2.928951   -1.128852
H      0.323764   -1.278815   -1.568884
H     -3.404869    0.244406   -1.736263
H     -7.039407    0.628185   -1.187477
H      1.708920   -1.480835    2.947430
H     -2.318808   -1.815150    1.738547
H      1.826398   -0.504238    0.072872
H     -6.099861    0.413728    1.307582
H      2.585324    0.831371    1.677519
H      3.058778   -3.817615    2.017246
