40

C     -4.215006    1.743937   -0.417515
C     -0.739260    2.416692    0.709381
C     -3.501169    0.616254   -1.026714
C      4.803671   -1.116420   -0.495780
C      5.161555    0.068208    0.130763
C      3.478639   -1.410052   -0.655140
C      4.225668    0.959798    0.598358
C     -1.848724   -0.803010    1.702637
C     -0.953867   -1.792693    1.057471
C     -1.802550   -1.098833   -1.097571
C      0.509438   -1.750434   -0.841326
C     -0.669627    1.114986    0.665408
C     -2.473539    0.020420   -0.440601
C     -1.983835    0.472505    0.886644
C      2.520682   -0.505075   -0.180553
C      1.164966   -0.549522   -0.208492
C      2.883314    0.663820    0.437697
C      0.674943    0.619260    0.406700
N      1.756127    1.322418    0.781645
N     -0.846730   -1.800002   -0.338323
H     -3.642677    2.709958   -0.539459
H     -4.481445    1.581910    0.651402
H     -5.177852    1.914401   -0.942387
H     -1.699117    2.881244    0.893805
H      0.081748    3.109442    0.575270
H     -3.816309    0.245231   -1.995230
H      5.556827   -1.797171   -0.852683
H      6.226446    0.291994    0.252387
H      3.116796   -2.316339   -1.134761
H      4.491762    1.883520    1.086875
H     -1.488463   -0.593931    2.728308
H     -2.878862   -1.221801    1.782779
H     -1.271861   -2.818866    1.402530
H      0.077263   -1.652012    1.497140
H     -1.319054   -0.707426   -2.030964
H     -2.606643   -1.796667   -1.471065
H      0.509805   -1.663500   -1.928591
H      1.053700   -2.644149   -0.461589
H     -2.635744    1.159885    1.409008
H      1.758981    2.242020    1.269625
