84

C      6.973265   -4.044768   -0.457497
C      5.074506   -0.669702   -2.428419
C      6.864220    0.361291   -1.086252
C     -6.983012   -0.105103   -0.178246
C     -6.263555   -1.259096   -2.269693
C     -0.474067    1.071164   -1.329319
C     -0.318162    1.356404    2.500619
C     -2.910842   -1.066187    1.689788
C      2.537083    2.344111    2.827909
C     -4.592489    0.927885   -0.711876
C     -3.295074    1.627058   -0.640206
C      4.059252   -0.287086    0.807260
C      4.609830    0.244542   -0.235668
C     -3.570760   -2.573833   -0.350034
C     -0.789196    2.919122    0.202329
C      0.132293   -0.536470    0.932779
C      6.714833   -2.701728   -1.037239
C     -4.599474   -0.391741   -0.728929
C     -3.328783   -1.157747   -0.677799
C     -4.760001   -3.096662   -0.062313
C      0.688376    3.118158    0.472427
C     -2.332857    0.948961    0.303537
C      3.069555    0.365859    1.620053
C     -1.025598   -1.101406    0.192982
C      1.253319    1.716060    0.717633
C     -5.973256   -2.283959   -0.045699
C      5.654172   -0.513435   -1.044628
C     -5.956387   -1.023031   -0.804674
C     -0.944536    1.416478    0.058953
C      0.068738    0.963803    1.112238
C     -2.418533   -0.535013    0.331593
C      2.521450    1.724131    1.458268
O      7.290618   -2.382356   -2.108724
O     -4.895879   -4.448233    0.236228
O      1.238978    3.671959   -0.681906
O      2.622767   -0.353948    2.608144
O     -0.790424   -2.062858   -0.544504
O     -6.959221   -2.698575    0.609102
O      3.414032    2.469549    0.696771
O      5.873201   -1.775029   -0.465308
H      7.597556   -3.941679    0.442597
H      6.002332   -4.492831   -0.142772
H      7.504139   -4.678984   -1.175081
H      4.182339   -0.041214   -2.602061
H      4.742276   -1.725882   -2.631801
H      5.819646   -0.379531   -3.219551
H      7.595900    0.079589   -1.876255
H      6.507846    1.389617   -1.374624
H      7.327366    0.476012   -0.094632
H     -7.385626    0.628270   -0.906520
H     -7.859378   -0.748401    0.101279
H     -6.581119    0.362807    0.724603
H     -5.623495   -0.654667   -2.925300
H     -5.984639   -2.332137   -2.474912
H     -7.339477   -1.094426   -2.457283
H     -1.306459    0.680862   -1.989627
H      0.279017    0.286097   -1.403369
H     -0.085056    1.948441   -1.893540
H      0.115176    0.593993    3.223909
H      0.029196    2.388404    2.763517
H     -1.380176    1.363312    2.747779
H     -3.816433   -0.547387    2.025022
H     -3.130074   -2.136169    1.645671
H     -2.078030   -0.933810    2.404194
H      3.633558    2.476524    3.113758
H      2.157748    1.717153    3.637582
H      2.184642    3.398020    2.831500
H     -5.500872    1.512612   -0.749948
H     -3.514109    2.668344   -0.254683
H     -2.942243    1.788044   -1.652738
H      4.403299   -1.317215    1.054584
H      4.398819    1.210173   -0.632388
H     -2.745668   -3.268246   -0.333457
H     -1.119679    3.373060   -0.746015
H     -1.428326    3.333145    1.001816
H      1.068965   -0.791447    0.435622
H      0.076938   -0.990010    1.946427
H     -2.922820   -1.142754   -1.708985
H      0.860410    3.779927    1.345474
H     -2.701199    1.300764    1.308018
H      1.539318    1.381766   -0.330667
H     -4.690461   -5.159299   -0.438929
H      1.423532    4.633551   -0.610136
H      3.206938    3.427030    0.687745
