84

C      9.915366   -0.041826   -1.210693
C      6.966922    0.735909    1.847241
C      6.530524    2.242375   -0.017163
C     -6.805245    1.988979   -0.995200
C     -7.053427    1.924731    1.465636
C     -0.491496    1.391733   -1.197322
C     -0.605498   -2.281130   -0.021933
C     -3.763144   -1.833750   -0.226900
C      2.715835   -2.460588   -0.072598
C     -4.214854    1.940376   -0.205554
C     -2.754664    1.655345    0.068833
C      4.250792    0.232947    1.064832
C      5.207480    0.157030    0.186736
C     -5.298083   -1.065589    1.587074
C     -0.790374   -0.701062   -2.177197
C     -0.702975   -0.440191    1.414321
C      8.832882    0.604488   -0.389504
C     -5.017758    1.041591    0.401801
C     -4.331711    0.007012    1.176377
C     -6.534886   -1.118271    1.164772
C      0.680513   -1.029388   -1.946259
C     -2.483683    0.303818   -0.544321
C      2.946400   -0.298691    0.965017
C     -2.144639   -0.919632    1.471912
C      1.016263   -0.567256   -0.510831
C     -7.103777   -0.137330    0.249326
C      6.561175    0.773917    0.415530
C     -6.472731    1.195854    0.245811
C     -1.109955    0.027042   -0.912292
C     -0.271596   -0.822590    0.068094
C     -3.149372   -0.641871    0.432242
C      2.347661   -1.009791   -0.131456
O      9.193085    1.605924    0.279218
O     -7.357416   -2.149131    1.597920
O      1.513414   -0.537209   -2.894559
O      2.206400   -0.117491    1.999248
O     -2.542876   -1.584173    2.428650
O     -8.072395   -0.353233   -0.515511
O      3.127184   -0.607712   -1.290523
O      7.546509    0.136225   -0.370977
H      9.658969   -1.121330   -1.357283
H     10.072198    0.484892   -2.163907
H     10.880546   -0.027864   -0.663052
H      6.392656   -0.032486    2.429107
H      8.026343    0.421581    1.914674
H      6.894495    1.722430    2.346685
H      7.200874    2.855993    0.620130
H      6.912698    2.341270   -1.065179
H      5.515670    2.675351    0.099847
H     -6.073143    1.789743   -1.792575
H     -7.845460    1.811807   -1.269249
H     -6.706242    3.065540   -0.724325
H     -8.158796    1.727498    1.418158
H     -6.691261    1.451763    2.384911
H     -6.886133    2.999786    1.396670
H     -1.276924    1.873511   -1.876595
H      0.313808    1.380473   -1.995163
H     -0.265113    1.986000   -0.329495
H      0.320634   -2.849049    0.222610
H     -0.939836   -2.674084   -0.964866
H     -1.250239   -2.660212    0.833139
H     -3.270947   -2.173104   -1.153958
H     -4.828938   -1.715186   -0.506298
H     -3.771336   -2.663655    0.542255
H      3.852202   -2.542289   -0.162826
H      2.379210   -3.090728   -0.889184
H      2.559378   -2.844838    0.954903
H     -4.558853    2.748395   -0.802340
H     -2.676655    1.615689    1.196464
H     -2.215877    2.509986   -0.246199
H      4.571671    0.804796    1.988965
H      5.099110   -0.362576   -0.734049
H     -4.956872   -1.832570    2.264725
H     -0.771544   -0.017676   -3.089030
H     -1.415495   -1.509753   -2.489469
H     -0.193754   -1.150402    2.142309
H     -0.576908    0.569613    1.747897
H     -3.977879    0.404058    2.181869
H      0.755684   -2.118125   -1.931510
H     -3.117035    0.234260   -1.481326
H      1.143401    0.549667   -0.448098
H     -7.233072   -3.109818    1.280330
H      1.683697   -1.163640   -3.628377
H      2.939214    0.387896   -1.334591
