39

C      2.570611   -1.015207    1.527720
C      0.843386    2.771504    1.631707
C     -1.890498   -2.859239    0.048400
C     -0.769076   -2.055299    0.243846
C     -3.102626   -2.282251   -0.324876
C      1.415736   -0.485080   -0.502478
C     -1.245283    2.117864   -0.337685
C     -3.677634    1.226803   -0.864565
C      3.486055   -1.674478   -0.823386
C      2.453459   -1.036876    0.063138
C     -2.331165    1.152811   -0.512714
C     -0.876531   -0.692717    0.063950
C      0.297430    0.191018    0.256960
C     -3.198999   -0.917389   -0.502215
C      0.121017    1.546581   -0.335320
C     -2.074237   -0.179088   -0.298334
N      1.063954    2.445660    0.267297
N     -4.154916   -0.034246   -0.845016
O      3.133750   -1.556687   -2.161863
H      1.823150   -1.625051    2.048049
H      3.575726   -1.442237    1.795499
H      2.539365    0.000490    1.967273
H      0.304544    3.744161    1.732049
H      0.385505    2.010174    2.261768
H      1.855834    2.978406    2.090168
H     -1.845722   -3.931565    0.179550
H      0.141191   -2.557529    0.531254
H     -3.987266   -2.874921   -0.484357
H      1.298041   -0.482863   -1.583989
H     -1.472449    2.752279    0.549932
H     -1.325162    2.846825   -1.199246
H     -4.161100    2.157720   -1.091737
H      3.517624   -2.766003   -0.598324
H      4.443258   -1.176355   -0.670657
H      0.532207    0.241178    1.325301
H      0.434598    1.496651   -1.427961
H      1.239634    3.303550   -0.262652
H     -5.137610   -0.314715   -1.065127
H      3.774197   -1.023878   -2.691357
