96

C     15.679727   -0.266323    1.607014
C     13.913213   -0.360458    3.429234
C      2.582238   -3.107512   -0.999005
C     -3.064039    0.586035   -0.018699
C     11.312563    3.461229   -0.897441
C      6.679519    1.949321   -0.633108
C     -7.572743    1.123090    0.348357
C    -11.735861    1.243620   -2.075590
C    -12.633671    0.763006    1.552326
C    -11.581017   -1.479470    1.932980
C      0.344239   -1.771291   -0.691009
C     -0.745038   -1.071018   -0.516798
C     13.747200    0.543382   -0.296654
C      4.957343   -0.309138   -0.596231
C      9.560198    1.326154   -0.660087
C     -5.565124   -0.601387   -0.334170
C    -14.539171   -0.721083   -0.372757
C     13.365168    0.271905    1.122668
C      1.623052   -1.173482   -0.556929
C     -2.118867   -1.556985   -0.624523
C     13.291729    1.919406   -0.657672
C      4.196160   -1.442363   -0.616833
C     -4.545930   -1.389780   -0.610853
C     11.030116    1.041389   -0.620661
C      6.405062   -0.424198   -0.624828
C      8.668333    0.374709   -0.609260
C     -6.935009   -1.059845   -0.506178
C    -13.813899    0.223090   -1.231122
C     -9.295197   -0.694698   -0.366359
C    -10.364678    0.000625   -0.086097
C    -13.790078   -1.270435    0.787321
C     14.259837   -0.099453    1.995439
C      2.812728   -1.270216   -0.582899
C     -3.185220   -0.825754   -0.406471
C     11.831797    2.048311   -0.728666
C      7.242863    0.595847   -0.640267
C     -7.926404   -0.207193   -0.171671
C    -12.512229    0.302682   -1.225363
C    -11.717192   -0.593297   -0.327536
C    -12.426192   -0.628556    1.003561
H     16.352745   -0.418933    2.491998
H     15.687411   -1.179598    0.941275
H     15.991524    0.650248    1.047176
H     13.096725    0.340763    3.688319
H     13.578832   -1.385229    3.601238
H     14.820021   -0.091355    4.049409
H      1.910655   -2.929727   -1.772350
H      3.587253   -3.156569   -1.355884
H      2.440531   -3.328688    0.016107
H     -3.683817    1.188014   -0.755950
H     -3.641297    0.722897    0.946532
H     -2.100613    1.042959   -0.005325
H     12.110732    4.172105   -1.115743
H     10.550479    3.493229   -1.705261
H     10.820573    3.709880    0.064621
H      7.369593    2.773423   -0.832672
H      5.892819    1.952950   -1.453360
H      6.126754    2.169132    0.324360
H     -7.108311    1.792147   -0.423583
H     -8.478895    1.643449    0.678607
H     -6.860568    1.040240    1.226497
H    -11.190628    0.623177   -2.848223
H    -10.925575    1.721008   -1.465198
H    -12.411158    1.981056   -2.547353
H    -13.601691    0.778420    2.091155
H    -11.844233    1.090080    2.245671
H    -12.662240    1.511657    0.721956
H    -10.919895   -2.135926    1.317790
H    -10.911665   -0.801718    2.492742
H    -12.231428   -2.100644    2.595756
H      0.176596   -2.841349   -0.941362
H     -0.645994   -0.027549   -0.271074
H     14.818523    0.396904   -0.503489
H     13.220600   -0.261497   -0.892387
H      4.469528    0.635898   -0.558687
H      9.224564    2.345945   -0.730066
H     -5.400559    0.406060    0.016309
H    -14.796431   -1.598145   -1.043070
H    -15.530976   -0.309700   -0.055107
H     12.344586    0.395903    1.443261
H      1.477843    0.011871   -0.265954
H     -2.268529   -2.614947   -0.912860
H     13.689213    2.219735   -1.675305
H     13.637442    2.683577    0.101440
H      4.801687   -2.333877   -0.641525
H     -4.698099   -2.393550   -0.976970
H     11.294287    0.006159   -0.519387
H      6.864975   -1.421212   -0.625698
H      9.080022   -0.651007   -0.543015
H     -7.173458   -2.012965   -0.873282
H    -14.354801    0.879194   -1.908865
H     -9.417791   -1.700201   -0.760163
H    -10.269672    0.996488    0.326333
H    -14.431235   -1.131318    1.712958
H    -13.671683   -2.375660    0.721076
H    -11.640799   -1.623067   -0.719297
