96

C     14.334838    0.828349   -2.615108
C     12.537962    2.612306   -2.242919
C      1.802313   -0.317232    2.478347
C     -2.184749    0.445290   -3.018527
C     12.043880   -0.804806    3.262979
C      6.940902   -0.528968    3.433070
C     -8.025887    0.154896   -3.081443
C    -11.197350   -2.478260    0.950767
C    -13.710453    0.192849   -0.071595
C    -12.809887    0.950517   -2.259113
C      0.011171   -0.067980    0.246727
C     -0.727407    0.079633   -0.843302
C     13.064306   -0.715610   -0.477807
C      4.658004   -0.330476    1.681087
C      9.565777   -0.653718    1.995882
C     -5.515445   -0.025531   -1.703700
C    -11.207291    1.352024    1.168411
C     12.567283    0.594204   -0.921328
C      1.451308   -0.035099    0.102352
C     -2.162147    0.035403   -0.652128
C     13.272015   -0.851171    1.000832
C      3.707082   -0.230944    0.813568
C     -4.303586    0.078583   -1.688175
C     10.798396   -0.728835    1.228639
C      6.043661   -0.404334    1.232904
C      8.433172   -0.574909    1.340714
C     -6.709823   -0.262486   -1.073124
C    -11.130403   -0.088287    1.453598
C     -9.132930   -0.506826   -0.926000
C    -10.291548   -0.414289   -1.519749
C    -11.747833    1.667582   -0.182870
C     13.137790    1.280102   -1.875125
C      2.245420   -0.144904    1.069464
C     -2.936781    0.210055   -1.729319
C     11.982246   -0.799506    1.772484
C      7.114163   -0.495365    1.972545
C     -7.883549   -0.196414   -1.664006
C    -11.294997   -1.051839    0.566185
C    -11.577670   -0.707333   -0.840572
C    -12.469239    0.532386   -0.841613
H     14.070574    0.240197   -3.536704
H     14.938484    1.733911   -2.945520
H     15.032648    0.229124   -2.030359
H     12.750733    3.343392   -1.416294
H     11.437248    2.485307   -2.304795
H     12.958872    3.045927   -3.148707
H      1.562168    0.592793    3.011363
H      0.885103   -0.990111    2.526951
H      2.585049   -0.894830    3.039285
H     -1.660763    1.435623   -2.908291
H     -1.486848   -0.368771   -3.246888
H     -2.885668    0.608501   -3.865022
H     13.085787   -0.775349    3.621793
H     11.513695    0.072814    3.683981
H     11.627229   -1.783748    3.609433
H      6.085880    0.159569    3.687470
H      6.612183   -1.539700    3.794306
H      7.832846   -0.206277    3.964252
H     -7.117256    0.399634   -3.618726
H     -8.733809    1.031114   -3.212995
H     -8.526978   -0.681596   -3.658738
H    -12.194019   -2.871595    1.308879
H    -10.406600   -2.616315    1.746844
H    -10.883004   -3.123892    0.133049
H    -13.575259    0.490165    0.999723
H    -13.864244   -0.928223   -0.047306
H    -14.606435    0.723379   -0.467985
H    -13.737439    1.532291   -2.222681
H    -11.945682    1.498242   -2.687301
H    -12.996592    0.037508   -2.846361
H     -0.455349   -0.202233    1.190274
H     -0.238492    0.224936   -1.779574
H     13.948439   -1.077311   -1.052436
H     12.258712   -1.462635   -0.780245
H      4.424979   -0.357659    2.709501
H      9.572886   -0.659944    3.092602
H     -5.644820   -0.312060   -2.912805
H    -10.150617    1.730263    1.197291
H    -11.718062    1.878556    2.005485
H     11.693239    1.041673   -0.422998
H      1.860639    0.095188   -0.911266
H     -2.607995   -0.130883    0.302250
H     13.885544    0.019116    1.361290
H     13.733767   -1.807090    1.287885
H      4.016271   -0.211015   -0.250342
H     -4.442009    1.201770   -2.561874
H     10.705782   -0.769120    0.161509
H      6.232502   -0.386783    0.145107
H      8.496342   -0.573575    0.236976
H     -6.727923   -0.538655    0.032006
H    -10.914583   -0.348445    2.505102
H     -9.075875   -0.804445    0.090230
H    -10.330442   -0.104471   -2.578980
H    -12.497800    2.489926   -0.051904
H    -10.959531    2.103328   -0.866368
H    -12.116219   -1.516575   -1.384294
