99

C     -2.029344   -1.018741   -0.997094
C      2.396661    2.396698    2.952973
C     -6.981390   -0.559211   -0.836203
C      8.142909    2.646500    2.213064
C    -10.571339    1.166463   -2.784371
C    -11.741323   -0.009274    1.872911
C    -12.275202    1.815821    0.315319
C     10.782167   -2.840970    1.237330
C      9.858125   -3.154076   -0.975171
C     10.394228    1.260794   -1.624385
C     -0.252260    0.370266    0.654732
C      0.631239    1.074996    1.378813
C     -5.109960    0.557980    0.473773
C      5.444806    1.754550    2.186806
C     -1.586557    0.540618    0.699564
C      2.020702    0.791626    1.246331
C     -3.929536    0.277017    0.255377
C      4.309968    1.166129    1.736928
C     -6.367547    1.014393    0.863968
C      6.547382    0.996982    1.573439
C     -8.834731    0.701768    0.580068
C     -9.660488    0.080533   -0.254481
C      8.642360    0.382651    0.921357
C      9.302727   -0.387732    0.399757
C    -12.634572   -0.028561   -2.251379
C    -13.382517   -0.390185    0.111860
C     12.238868   -2.656016   -0.759392
C     12.034584   -0.613464   -2.178859
C     -2.622507   -0.040068    0.007167
C      2.966001    1.417269    1.965918
C     -7.390891    0.378681    0.108751
C      7.884649    1.376053    1.565310
C    -11.398957    0.353742   -1.893231
C    -13.436037   -0.844277   -1.321951
C     12.957900   -1.553049   -1.430647
C    -11.000743   -0.155814   -0.532586
C    -12.076429    0.334390    0.448150
C     10.872869   -2.321247   -0.200602
C     11.110698   -0.010415   -1.187177
C     10.591204   -0.897898   -0.213131
O    -13.187921   -2.206387   -1.486992
O     13.903657   -2.113876   -2.299945
O     11.601324    0.017948    0.148424
H     -2.634460   -0.886231   -1.970847
H     -1.036622   -0.689751   -1.307071
H     -2.152814   -2.048522   -0.691513
H      1.473298    1.889281    3.433398
H      3.080238    2.355583    3.878495
H      2.309959    3.379817    2.627161
H     -6.011084   -1.115926   -0.422625
H     -7.652435   -1.486112   -0.877963
H     -6.667940   -0.320755   -1.841350
H      8.899331    3.289609    1.683743
H      8.542842    2.549297    3.237153
H      7.176711    3.215461    2.353769
H     -9.927357    1.906354   -2.261339
H     -9.903625    0.573783   -3.423026
H    -11.250975    1.714838   -3.522212
H    -11.757633    0.856556    2.548600
H    -12.446663   -0.758971    2.308796
H    -10.668536   -0.412792    1.925054
H    -13.344382    2.032527    0.591796
H    -12.093051    2.179858   -0.727342
H    -11.675711    2.416337    1.051781
H      9.736287   -3.146745    1.500122
H     11.118394   -2.031412    1.939817
H     11.410863   -3.746166    1.270660
H      8.905075   -3.205810   -0.439054
H     10.197063   -4.215836   -1.063886
H      9.656994   -2.730121   -1.988249
H     10.848182    2.160293   -1.192755
H      9.284812    1.196213   -1.489972
H     10.491057    1.419581   -2.740406
H      0.287474   -0.396077    0.026449
H      0.259376    1.846035    2.021008
H     -4.477400    1.413263    1.512407
H      5.373766    2.540590    2.806887
H     -2.043590    1.275623    1.436199
H      2.420774    0.050197    0.570217
H     -4.358671   -0.109871   -1.021773
H      4.525540    0.305500    1.009972
H     -6.701578    1.676092    1.577679
H      6.449760    0.036293    1.108898
H     -9.072978    1.259473    1.368409
H     -8.981454   -0.389052   -1.109950
H      9.847148    1.262511    1.031380
H      8.438776   -1.296870    0.152442
H    -12.953477    0.287925   -3.223701
H    -14.213743    0.283482    0.302649
H    -13.496632   -1.273323    0.744415
H     12.869140   -3.012320    0.102725
H     12.174991   -3.533994   -1.426077
H     12.676270    0.185431   -2.578703
H     11.538533   -1.217600   -2.943598
H    -14.519512   -0.724260   -1.660568
H     13.534835   -0.999988   -0.639670
H    -11.274752   -1.274279   -0.578887
H    -13.860871   -2.739838   -1.009657
H     13.485679   -2.867792   -2.832826
