65

C      6.124563    0.281165    1.390885
C     -6.920138    0.606978    0.687845
C     -0.256224   -3.287414   -0.552824
C      5.300993    1.326711    0.680404
C     -3.163753    3.182961    0.920078
C     -1.996589    2.494057    0.672338
C     -4.430455    2.582089    0.899203
C      0.151881    0.815592   -0.257412
C     -2.500735   -1.713587   -0.186462
C     -4.944802   -0.900393    0.195397
C      0.760980   -1.234905   -1.276269
C      4.796298   -0.223193   -1.197170
C     -3.579590   -0.748118    0.111367
C      1.353953   -0.021178   -0.570115
C      4.189111    0.702027   -0.148878
C     -2.121844    1.157335    0.395780
C     -0.975726    0.258219    0.103989
C     -4.535322    1.214262    0.614303
C     -1.140910   -1.195043    0.227522
C     -3.352960    0.562102    0.373155
C      2.149922   -0.390039    0.591641
N      3.364446   -0.062052    0.738909
N     -5.524293    0.309332    0.504610
N     -0.047330   -1.900139   -0.317388
O      5.602641    0.464579   -2.081907
O      1.583802   -1.148161    1.627338
C     -0.580299    0.594756    0.730180
C      0.691792    0.682376    0.468293
C     -1.467411   -0.293472    0.037148
C      1.392372   -0.070602   -0.524266
O     -1.206240   -1.085794   -0.875318
O     -2.848103   -0.305071    0.410827
O      1.005717   -0.924231   -1.321673
O      2.778969    0.216721   -0.604464
H      6.519024    0.729088    2.324104
H      7.004279   -0.042398    0.802023
H      5.515954   -0.590844    1.682451
H     -7.093024    0.687668    1.799707
H     -7.580701   -0.204082    0.323775
H     -7.195016    1.596697    0.249921
H     -0.838598   -3.504058   -1.475929
H      0.733812   -3.783396   -0.702959
H     -0.707041   -3.746547    0.340307
H      5.966175    1.953445    0.033147
H      4.886926    2.013215    1.445452
H     -3.163933    4.242452    1.147739
H     -1.056101    2.983365    0.698102
H     -5.343208    3.125962    1.094020
H      0.216901    1.909529   -0.337432
H     -2.744646   -2.659861    0.334673
H     -2.484912   -1.919118   -1.264692
H     -5.551494   -1.773774    0.059795
H      1.515846   -1.894294   -1.683312
H      0.087482   -0.812630   -2.078112
H      3.966456   -0.690836   -1.746697
H      5.342600   -1.034937   -0.670126
H      1.980648    0.562641   -1.281443
H      3.656731    1.514462   -0.662955
H     -1.111436   -1.393210    1.349507
H      5.442300    1.426520   -2.039650
H      2.147059   -1.828245    2.155903
H     -1.009828    1.253721    1.546840
H      1.262334    1.426908    1.096981
H     -3.379660   -1.141644    0.242115
H      3.360359   -0.353669   -1.206663
