57

C     -4.562245    1.094094    1.566517
C     -5.330240   -0.460856   -0.138517
C     -5.337882    1.943331   -0.581654
C      5.557150   -0.943470   -0.271451
C      3.790835   -0.055214    1.192420
C      6.420155   -0.035028    0.534931
C      4.606295    1.216776    1.304827
C     -2.457938   -0.279293    0.245849
C     -0.131706   -1.094587    0.535422
C     -1.010936   -0.218076   -0.278890
C      3.216684   -1.213971   -1.016568
C      1.898596   -1.331141   -0.889271
C     -4.588785    0.816011    0.057098
N     -3.224257    0.780773   -0.368271
N      3.752518   -1.561415   -2.244801
N      1.132876   -1.776298   -1.941849
N      4.154191   -0.729168   -0.006503
O     -0.958297   -0.371176   -1.628269
O      5.865831    1.176846    0.818258
O      1.235854   -1.004718    0.343882
S      2.354273   -2.068693   -3.254306
C     -0.275556    1.036818    0.709835
C      0.610545    1.150580   -0.237806
C     -1.006995   -0.138712    1.066950
C      0.991734    0.060387   -1.093192
O     -1.844331   -0.032520    2.046432
O     -0.970863   -1.389022    0.535061
O      1.890043    0.359743   -1.981582
O      0.592942   -1.227809   -1.152869
H     -5.545754    1.492567    1.889433
H     -3.720554    1.786937    1.806909
H     -4.432801    0.111911    2.065426
H     -5.210113   -1.168823    0.701908
H     -5.135570   -0.944335   -1.126712
H     -6.425205   -0.204955   -0.157863
H     -6.413678    1.711728   -0.554890
H     -5.018658    2.027582   -1.644416
H     -5.110984    2.868555   -0.011908
H      5.760537   -0.776097   -1.354381
H      5.779838   -1.989468    0.025012
H      2.745152    0.257173    1.287178
H      4.092800   -0.699118    2.068904
H      7.355837    0.156403   -0.061842
H      6.796952   -0.539639    1.469394
H      4.643261    1.516816    2.387296
H      4.040528    2.017991    0.748289
H     -2.821975   -1.275902    0.011078
H     -2.418402   -0.103970    1.324676
H     -0.377102   -0.983884    1.622386
H     -0.462936   -2.168820    0.326847
H     -0.686258    0.843396   -0.062726
H     -2.804673    1.717587   -0.216931
H     -1.013213    0.461636   -2.148347
H     -0.463188    1.978234    1.289988
H      1.081548    2.154199   -0.370826
H     -1.831097   -1.914025    0.442674
H      1.225219   -2.037874   -1.254665
