62

C     -1.030969   -1.445653    1.504772
C      4.285611    1.780960   -1.039554
C     -3.769017    2.778117    2.000639
C     -3.947832    1.493954    2.462500
C     -2.802982    3.012321    1.052158
C      4.491638   -1.271891    0.134421
C     -3.161506    0.450080    1.975474
C     -2.034922    1.981598    0.578847
C      3.041482   -0.963196    0.431210
C     -2.559710   -0.276966   -1.675226
C     -2.267256   -2.383828   -0.652955
C     -3.257812   -0.858952   -2.724558
C     -2.972291   -2.965287   -1.714464
C      1.929371    1.248595    0.170320
C      4.720404   -0.556672   -1.172392
C      0.681122    0.691797    0.861154
C     -2.193232    0.676196    1.026994
C     -2.066497   -1.029737   -0.645091
C     -3.469017   -2.216622   -2.749219
C      2.618173    0.118750   -0.510343
C     -1.319729   -0.392078    0.459330
Cl    -4.357024   -2.947162   -4.086802
N      3.741897    0.477171   -1.304329
O     -0.158859    0.119608   -0.080890
C      0.519224   -0.666832    0.070318
C     -0.433981    0.244051   -0.055330
C      1.852426   -0.415914   -0.463186
C     -1.755417   -0.043268    0.491427
O      2.757530   -1.278271   -0.345073
O      2.205908    0.753722   -1.117693
O     -1.994808   -1.141676    1.077149
O     -2.813932    0.844377    0.409504
H     -0.302716   -2.160040    1.096050
H     -1.969936   -1.952600    1.774206
H     -0.641372   -0.980607    2.435802
H      5.194818    1.880671   -1.697269
H      3.628320    2.605383   -1.297271
H      4.669127    1.890650    0.007590
H     -4.380531    3.607156    2.375377
H     -4.681087    1.248123    3.198144
H     -2.655472    4.020196    0.683227
H      5.178100   -0.887457    0.919166
H      4.652447   -2.370599    0.051382
H     -3.310707   -0.569072    2.347791
H     -1.291108    2.191377   -0.163391
H      2.948597   -0.684848    1.502223
H      2.457444   -1.917558    0.295529
H     -2.431782    0.781138   -1.718486
H     -1.915705   -3.067270    0.110157
H     -3.644120   -0.255641   -3.534829
H     -3.128750   -4.038276   -1.715494
H      2.543549    1.729093    0.958416
H      1.576503    1.991764   -0.551104
H      5.766164   -0.172093   -1.221678
H      4.566179   -1.306346   -1.999039
H      0.980240   -0.166465    1.536717
H      0.190889    1.409598    1.511339
H      1.859866   -0.347382   -1.206550
H      0.278193   -1.578096    0.569495
H     -0.273197    1.183654   -0.542609
H      3.136603    1.177131   -1.035905
H     -3.478549    0.921121    1.191348
