50

C      3.338460    0.707349   -1.169218
C      3.791304    1.663781    0.945666
C     -1.829506   -3.656337   -0.931574
C     -2.728916   -4.086026    0.020847
C     -1.082700   -2.522549   -0.713880
C     -1.728472    1.485856    1.017659
C     -0.905176    1.105329   -1.156187
C     -2.339992    2.655553    0.640581
C     -1.518032    2.280918   -1.543294
C      1.049917   -0.716972    0.147734
C     -2.833790   -3.344046    1.160149
C      1.819423    0.487836    0.651562
C     -1.001839    0.675500    0.165239
C     -2.236229    3.064066   -0.660382
C     -0.384018   -0.559785    0.660887
C     -1.197519   -1.765463    0.461499
Cl    -3.020783    4.551098   -1.118528
N     -2.085927   -2.221785    1.361211
N      3.201108    0.504134    0.255578
C      0.459779   -1.025706   -0.131649
C     -0.842682   -0.948260   -0.172107
C      1.320615    0.106484    0.044928
C     -1.629134    0.234206   -0.052847
O      1.018124    1.299600    0.186671
O      2.718269   -0.150308    0.062933
O     -2.920896    0.091004   -0.121344
O     -1.266797    1.529814    0.125534
H      3.826565    1.687643   -1.364737
H      4.010696   -0.083921   -1.584527
H      2.369575    0.650044   -1.672762
H      3.588588    1.526224    2.021341
H      4.840396    1.811935    0.678831
H      3.219266    2.575641    0.641133
H     -1.746082   -4.251718   -1.839933
H     -3.344773   -4.963500   -0.081822
H     -0.383317   -2.194904   -1.457850
H     -1.804699    1.140766    2.060340
H     -0.341216    0.495060   -1.864086
H     -2.903496    3.257915    1.360554
H     -1.442141    2.611655   -2.557338
H      1.478916   -1.664523    0.487535
H      1.031572   -0.681560   -0.942533
H     -3.534570   -3.643595    1.945669
H      1.275689    1.429804    0.412617
H      1.820952    0.437195    1.779997
H     -0.269236   -0.448615    1.782024
H      0.904149   -2.037247   -0.241874
H     -1.413033   -1.897158   -0.314158
H      3.331764    0.627958   -0.191183
H     -1.680158    2.169614    0.805097
