53

C      8.175064    0.650363   -0.796494
C      7.402104   -0.259086   -1.732038
C      6.252965   -0.845613   -0.902476
C     -2.643271   -0.548343    1.163156
C     -3.310656   -0.853621   -0.138752
C     -1.569491    0.519805    1.025879
C     -3.987695    0.326366   -0.756457
C     -0.513538    0.118845    0.095549
C     -5.065130    0.912911    0.115044
C      5.444366    0.332785   -0.436519
C      0.770829   -0.026488    0.343040
C     -6.160930   -0.074620    0.424203
C      4.254286   -0.086100    0.407531
C      1.345114    0.212985    1.683799
C     -6.850820   -0.574737   -0.822120
C      3.533186    1.179084    0.807460
C      2.361195    1.309422    1.600476
C     -7.898140   -1.528272   -0.409608
O     -7.578807   -2.701462   -0.133361
O     -9.218796   -1.148980   -0.323609
O      3.560132    1.310857    2.247560
H      8.063134    0.293892    0.258062
H      9.269030    0.648179   -1.015384
H      7.847859    1.706891   -0.893509
H      6.912219    0.401860   -2.476492
H      8.022743   -1.044303   -2.182966
H      5.693081   -1.514287   -1.566107
H      6.675500   -1.413062   -0.060004
H     -3.369177   -0.207255    1.903117
H     -2.135614   -1.457637    1.521105
H     -3.989047   -1.712475    0.026244
H     -2.535367   -1.207269   -0.848402
H     -1.183475    0.715378    2.018988
H     -2.060670    1.476264    0.698522
H     -4.361290    0.039387   -1.761111
H     -3.228973    1.116689   -0.925247
H     -0.791397   -0.101304   -0.971134
H     -4.601808    1.199865    1.074875
H     -5.458837    1.801947   -0.380399
H      6.093798    0.948869    0.214961
H      5.062217    0.862222   -1.321290
H      1.421864   -0.340283   -0.505538
H     -6.930325    0.463226    1.016147
H     -5.794173   -0.927485    0.993805
H      3.621982   -0.779360   -0.162123
H      4.605095   -0.689331    1.292366
H      1.899348   -0.771976    1.916475
H      0.586102    0.379849    2.436254
H     -7.309899    0.235244   -1.408223
H     -6.154382   -1.106441   -1.501558
H      3.937927    2.141941    0.345943
H      1.828713    2.324200    1.532428
H     -9.938144   -1.709535    0.152439
