49

C      1.753234    3.530779   -1.564506
C      2.775621   -1.166384    1.826195
C      3.654328   -1.013117   -0.609679
C      2.140647    2.578737   -0.490479
C     -3.276511   -1.880348   -1.160286
C     -2.958007    1.121291    1.518208
C     -4.326785   -1.710431   -0.126171
C     -4.027788    0.413258    0.741305
C      1.737819    0.948999    1.245070
C     -0.782119   -1.459956   -1.419547
C      1.737326   -0.490033    0.911453
C      1.227479    1.864429    0.198660
C     -2.085300   -1.460896   -0.704852
C     -1.715029    0.384588    0.969896
C     -2.242322   -0.984317    0.663217
C     -0.180542    2.042897   -0.122229
C      1.499627   -2.163565   -0.781132
C      2.127597   -0.857242   -0.490816
N     -3.666726   -0.977083    0.904551
O     -0.487331    3.244751   -0.478603
O      2.211670   -3.155555   -1.054828
O      1.759623    0.037589   -1.459544
O      0.142220   -2.276414   -0.746429
O     -1.156812    1.082355   -0.078729
H      2.648734    3.715477   -2.194533
H      1.424337    4.504938   -1.186875
H      1.005663    3.062246   -2.266660
H      3.017685   -2.155014    1.398261
H      3.619159   -0.496587    1.976611
H      2.292663   -1.388403    2.823162
H      4.195426   -0.314809    0.032905
H      3.972880   -2.053016   -0.396753
H      3.965647   -0.785755   -1.667793
H      3.182440    2.439343   -0.237609
H     -3.454426   -2.295974   -2.167431
H     -3.051703    0.973082    2.609365
H     -2.948772    2.180880    1.217862
H     -5.159770   -1.154398   -0.607830
H     -4.650033   -2.726777    0.191248
H     -3.932663    0.697030   -0.319936
H     -5.036599    0.542164    1.155790
H      2.804825    1.219706    1.516219
H      1.202866    1.073845    2.220692
H     -0.480952   -0.433799   -1.595985
H     -0.885250   -1.929084   -2.439423
H      0.788138   -1.035593    1.183997
H     -1.024457    0.331172    1.861175
H     -1.769917   -1.724805    1.393680
H      2.412158    0.099799   -2.190863
