55

C     -7.996838   -0.819940    0.002610
C     -6.874289   -0.561802    1.004932
C     -5.942205    0.480258    0.541300
C      4.542744    0.637306   -0.351274
C      4.962397    0.053592   -1.627548
C     -4.649384    0.299275    0.332778
C      3.326919    1.080111   -0.147088
C      5.405400   -1.378076   -1.581444
C     -3.981175   -1.004444    0.545638
C      2.224567    1.077868   -1.095859
C      6.566509   -1.696731   -0.720542
C     -1.891209    0.076900    1.141315
C     -0.623942   -0.182613    1.059110
C     -0.512854    2.059188   -1.196031
C     -2.905896   -0.939989    1.612102
C      1.023364    0.293456   -0.693361
C      0.390959    0.774286    0.607864
C     -0.070971    0.696580   -1.656835
C     -0.095284    2.133913    0.245578
C      6.407255   -1.430887    0.715162
O     -2.275639   -2.170784    1.642527
O     -0.472287    0.031780   -2.584813
O      0.871954    3.126734    0.476007
O      5.353667   -1.792227    1.325252
O      7.398541   -0.776012    1.458807
H     -8.991514   -0.839687    0.486226
H     -7.785705   -1.763832   -0.508109
H     -8.021165    0.011921   -0.749077
H     -7.422181   -0.092647    1.888763
H     -6.431608   -1.466444    1.401873
H     -6.302250    1.508833    0.338716
H      5.314472    0.722990    0.462881
H      4.203341    0.141109   -2.413245
H      5.886754    0.609928   -2.031356
H     -4.034268    1.137893   -0.019395
H      3.117647    1.502001    0.852399
H      5.658399   -1.713909   -2.629367
H      4.510794   -1.981999   -1.305834
H     -4.647473   -1.853444    0.720206
H     -3.389517   -1.175260   -0.418032
H      2.474105    0.725434   -2.134900
H      1.876165    2.147527   -1.312667
H      6.806681   -2.780804   -0.884448
H      7.474205   -1.159525   -1.106437
H     -2.284299    1.035577    0.876160
H     -0.271571   -1.189697    1.345208
H     -1.620537    2.093060   -1.349528
H     -0.016381    2.861282   -1.767348
H     -3.347812   -0.650252    2.580224
H      1.197684   -0.782624   -0.722628
H      1.229579    0.903605    1.352401
H     -0.940185    2.416624    0.906361
H     -2.859149   -2.912700    1.324760
H      1.234701    2.957530    1.375895
H      7.198786   -0.480232    2.384110
