49

C     -1.827915    2.929176   -2.177339
C     -3.987353    0.020337    0.844292
C     -3.040381   -2.002979   -0.473805
C     -2.180925    2.300660   -0.883303
C      3.547557   -1.735652   -1.192583
C      2.623722    1.268866    1.629653
C      4.568404   -1.104041   -0.257182
C      4.010679    0.638033    1.380493
C     -1.786933    1.166032    1.175809
C      0.983148   -1.934479   -1.206086
C     -2.470365   -0.153903    0.998682
C     -1.264823    1.752192   -0.083017
C      2.336557   -1.522718   -0.680232
C      1.638501    0.320740    0.916757
C      2.555496   -0.793658    0.552931
C      0.134338    1.767402   -0.482702
C     -0.846331   -1.909529    0.477271
C     -1.915699   -1.038563   -0.062156
N      3.744625   -0.002169    0.156010
O      0.472049    2.792669   -1.186378
O     -0.897834   -2.126794    1.739349
O     -1.565058   -0.368240   -1.220308
O      0.166084   -2.490513   -0.223792
O      1.094799    0.858644   -0.211514
H     -1.159967    2.222947   -2.753174
H     -1.367845    3.931530   -2.064309
H     -2.714812    3.057395   -2.807658
H     -4.341734    0.863994    1.480783
H     -4.537613   -0.872923    1.202239
H     -4.262989    0.164569   -0.219826
H     -3.507567   -2.444896    0.416809
H     -2.525973   -2.837439   -1.021040
H     -3.740365   -1.556012   -1.175543
H     -3.245387    2.303868   -0.602796
H      3.807087   -2.255072   -2.101057
H      2.640238    2.251651    1.136233
H      2.455012    1.328972    2.701938
H      5.466172   -0.795881   -0.794094
H      4.743628   -1.855806    0.537731
H      4.172284   -0.124800    2.170122
H      4.797980    1.407589    1.363089
H     -2.598391    1.862461    1.560316
H     -1.063853    1.143343    1.999907
H      1.122208   -2.737385   -1.987033
H      0.588974   -1.072028   -1.741070
H     -2.357212   -0.705356    1.978672
H      0.974787   -0.038841    1.709524
H      2.820268   -1.452160    1.403938
H     -2.257276   -0.421231   -1.924552
