65

C      2.995160    0.373688   -1.448991
C     -1.489179    2.578510   -1.801882
C     -5.943790   -0.748951    0.429402
C     -4.711163   -2.757208   -0.091136
C     -2.695055    1.392856    0.829627
C     -2.767738   -1.395244    2.289984
C      0.884512   -0.553440   -0.189609
C     -3.478240    1.186927   -2.133531
C     -0.031350    0.477636   -0.758603
C     -4.357577    0.544261   -1.116885
C      2.924944    0.106115    0.958433
C     -4.188800   -1.459436    1.929217
C     -1.822172   -0.898761    1.222490
C      4.311492    0.613807    1.122706
C      2.315316   -0.007851   -0.202500
C     -2.103551    1.440214   -1.638636
C     -1.454073    0.246577   -0.930795
C     -3.634735   -0.584975   -0.375406
C     -4.524788   -1.341753    0.487556
C     -2.384230    0.024129    0.225162
O      8.472600   -2.090770    0.927066
O      9.627462    0.072011   -0.412616
O      7.322966   -0.879137   -1.129833
O      7.250015    1.844010   -1.265206
O      6.397756    2.790850    1.035797
O      4.933085    0.966500   -0.044412
O      7.339246    0.393494    1.118425
P      8.181342   -0.657470    0.090182
P      6.485870    1.528877    0.202205
H      3.875941   -0.261094   -1.691551
H      2.270425    0.170707   -2.291187
H      3.178134    1.452206   -1.492096
H     -0.506340    2.801370   -1.464186
H     -2.052714    3.363455   -2.337572
H     -5.988472    0.276264    0.791816
H     -6.498037   -1.350517    1.214753
H     -6.457404   -0.972408   -0.502002
H     -5.483825   -2.728208   -0.895675
H     -3.760447   -3.059042   -0.571560
H     -4.969776   -3.471574    0.708970
H     -1.737106    1.756357    1.268603
H     -2.987395    2.094497    0.054897
H     -3.408692    1.278713    1.659749
H     -2.371819   -2.408113    2.588250
H     -2.607962   -0.769865    3.194531
H      0.749939   -0.917013    0.804449
H      0.952378   -1.442907   -0.880060
H     -3.915875    2.160421   -2.426523
H     -3.384347    0.508893   -3.006243
H      0.392166    0.708530   -1.793022
H      0.180369    1.481160   -0.232557
H     -5.157178    0.006832   -1.709748
H     -4.773495    1.305158   -0.462014
H      2.426546   -0.176766    1.904765
H     -4.611215   -2.431106    2.301584
H     -4.756987   -0.689892    2.534250
H     -1.338164   -1.744376    0.721380
H     -1.021690   -0.312291    1.768420
H      4.301849    1.477922    1.830365
H      4.905629   -0.189601    1.635426
H     -1.620143   -0.586713   -1.680238
H     -3.266134   -1.238813   -1.225182
H      8.075162   -2.861007    0.437946
H      9.845297    0.825910    0.210622
H      7.666059    2.737443   -1.202445
