54

C     -8.554873    0.767859    0.106071
C     -7.719955   -0.474341   -0.185610
C     -6.250716   -0.015075   -0.278009
C      4.288296   -0.320959   -1.100440
C      4.956699   -0.478599    0.201474
C     -5.361367   -1.176344   -0.562950
C      3.152446    0.335951   -1.260299
C      6.348597    0.127368    0.210331
C     -3.907540   -0.878725   -0.699533
C      2.368657    1.006939   -0.225288
C      7.247995   -0.496687   -0.805040
C     -1.188689    0.855507    1.084743
C      0.912514    0.680691    2.186020
C     -1.838955   -0.017980    0.326945
C      1.419315   -0.512224    1.953920
C      0.256609    1.169537    0.954884
C     -3.305019   -0.281748    0.519582
C      0.951374    0.416839   -0.116928
C      1.147744   -0.912344    0.565681
C      8.573457    0.162187   -0.714237
O     -3.837204    0.963408    0.880347
O      1.083139   -2.027667    0.032998
O      8.831486    1.077636    0.095049
O      9.612169   -0.242302   -1.569089
H     -9.555814    0.611105   -0.370856
H     -8.672449    0.928500    1.196349
H     -8.083830    1.660948   -0.348220
H     -8.012673   -0.936889   -1.149370
H     -7.755749   -1.198960    0.636913
H     -6.223369    0.751919   -1.064867
H     -6.045059    0.497546    0.690893
H      4.726698   -0.760741   -2.016750
H      5.117538   -1.602392    0.319170
H      4.384049   -0.207315    1.083138
H     -5.748248   -1.629903   -1.526141
H     -5.533547   -1.980960    0.197578
H      2.740768    0.391085   -2.280743
H      6.785128   -0.072821    1.214901
H      6.339311    1.210482    0.075450
H     -3.725006   -0.282873   -1.620625
H     -3.400308   -1.881112   -0.837936
H      2.812410    0.852910    0.764052
H      2.308025    2.110340   -0.360085
H      6.878288   -0.413395   -1.839791
H      7.359451   -1.572862   -0.539992
H     -1.725400    1.396299    1.865865
H      0.960824    1.222833    3.115958
H     -1.259793   -0.526438   -0.431427
H      1.968794   -1.156340    2.649856
H      0.371800    2.282613    0.856359
H     -3.449785   -0.976473    1.369778
H      0.462497    0.343139   -1.074751
H     -3.731385    1.035783    1.861908
H     10.520655    0.175047   -1.540749
