52

C      7.126323    2.123720   -1.497613
C     -5.516400    2.198519   -1.381460
C     -3.033492    1.790245   -1.039437
C      2.019365    1.047597   -1.029198
C     -2.895587   -3.357398   -0.101396
C     -4.771600   -1.937352    0.868411
C      6.085354    1.938282   -0.656627
C      6.313685    1.041374    0.444883
C      5.385431    0.786077    1.319916
C      4.045106    1.385166    1.256808
C     -4.576923   -0.078041   -1.256021
C      1.864881   -1.765195    1.547790
C     -4.381223    1.221455   -1.220797
C      2.106221    0.162455    0.152375
C      2.981696    0.319514    1.126913
C     -3.453017   -1.021920   -1.094974
C      2.771661   -0.735749    2.120299
C      1.230946   -1.007597    0.396838
C     -2.560572   -0.836974    0.059778
C     -1.103919   -1.170779   -0.155658
C     -3.523852   -2.004641    0.029708
O      3.302598   -0.728903    3.276947
O     -0.770604   -1.937480   -1.092232
O     -0.094285   -0.665257    0.642247
H      8.074439    1.646629   -1.377525
H      7.029829    2.787580   -2.353845
H     -6.192878    1.838488   -2.204064
H     -5.144675    3.187654   -1.708271
H     -6.135876    2.227180   -0.474796
H     -2.781480    2.035455    0.024149
H     -2.235729    1.127000   -1.421795
H     -2.975701    2.796613   -1.552284
H      1.117227    1.680648   -1.043209
H      2.909936    1.690474   -1.154573
H      1.999479    0.389583   -1.945557
H     -3.585654   -4.179242    0.224781
H     -2.459831   -3.556454   -1.094103
H     -2.041819   -3.401077    0.632807
H     -5.634777   -1.486754    0.337737
H     -4.609576   -1.295995    1.776019
H     -5.096446   -2.961804    1.179663
H      5.180886    2.458550   -0.863554
H      7.284730    0.538389    0.585915
H      5.549342    0.099382    2.168519
H      3.891526    2.198385    0.565073
H      3.837515    1.823933    2.286735
H     -5.608602   -0.434444   -1.409877
H      1.112718   -2.126584    2.272411
H      2.431401   -2.650353    1.201288
H     -2.988107   -1.349411   -2.059672
H      1.276932   -1.692387   -0.476613
H     -2.756603   -0.158556    0.902403
