39

C      2.575562   -0.771531    2.365660
C     -1.287629   -2.764821    0.410702
C     -0.901215    2.096065    0.428681
C     -2.583103    0.479078    1.230502
C      1.592734    0.091430    0.204871
C      0.396829   -0.429000    0.570736
C      3.913729    0.428993    0.777394
C     -2.736135   -1.464443   -1.017181
C     -2.579423    1.102361   -1.124203
C      2.734418   -0.052371    1.077423
C     -1.622246   -1.528068   -0.304113
C     -3.017518   -0.200059   -1.710510
C      4.241157    1.149839   -0.425711
C     -1.673967    0.852629    0.063942
C     -0.777492   -0.301647   -0.287546
O     -3.634049   -0.192385   -2.813090
O      3.429909    1.401335   -1.330494
O      5.541736    1.623570   -0.647555
O     -0.377491   -0.099817   -1.629517
H      3.507363   -0.805468    2.949568
H      1.732700   -0.301841    2.913108
H      2.225262   -1.805878    2.107420
H     -2.205054   -3.379144    0.532273
H     -0.518662   -3.305991   -0.207638
H     -0.845765   -2.605468    1.402998
H     -0.674323    2.686450   -0.491412
H      0.053276    1.868585    0.945368
H     -1.503243    2.770640    1.075985
H     -3.589459    0.160073    0.863271
H     -2.169222   -0.312797    1.855470
H     -2.777512    1.362782    1.888769
H      1.562593    0.583803   -0.750019
H      0.351882   -0.940621    1.522948
H      4.759793    0.288659    1.488157
H     -3.433877   -2.273876   -1.114796
H     -3.432444    1.754581   -0.879631
H     -1.927608    1.573750   -1.909117
H      5.741172    2.252821   -1.400465
H     -0.092680   -0.992214   -1.953596
