61

C      7.087482   -3.252581    1.457059
C      7.265911   -2.039850    0.546989
C      5.993237   -1.215661    0.662764
C     -4.088846   -0.431082    1.534290
C     -5.361427   -1.127387    1.125438
C      6.145060   -0.008825   -0.232481
C     -3.222593   -0.095341    0.322824
C     -6.229649   -0.296569    0.203229
C      4.935856    0.901347   -0.178284
C     -1.966910    0.588085    0.720272
C     -7.479419   -1.130584   -0.108473
C      2.502109    1.082187   -0.561346
C      1.407395    0.763557    0.101835
C     -1.166571    3.236799   -0.710533
C      3.686865    0.147395   -0.623923
C     -1.036411    0.933963   -0.397677
C      0.222653    1.606034    0.210296
C     -1.528281    1.910505   -1.409612
C      0.326986    2.924541   -0.509636
C     -7.064687   -2.380098   -0.769020
O      3.840665   -0.370830   -1.902763
O     -2.822461    1.863973   -1.788990
O      0.966602    3.900891    0.219957
O     -6.367797   -2.276659   -1.839001
O     -7.386623   -3.649341   -0.290801
H      7.964696   -3.935159    1.364655
H      7.046079   -2.863369    2.504812
H      6.150139   -3.782131    1.189782
H      7.373145   -2.401562   -0.478055
H      8.100096   -1.426711    0.927535
H      5.143062   -1.828462    0.278866
H      5.852850   -0.868337    1.697430
H     -4.360091    0.458531    2.128673
H     -3.528017   -1.116114    2.191911
H     -5.189421   -2.144171    0.737642
H     -5.972230   -1.264518    2.068159
H      6.240547   -0.420945   -1.280003
H      7.078182    0.538336   -0.043057
H     -3.815825    0.495498   -0.388304
H     -3.022938   -1.078169   -0.166719
H     -6.606047    0.618123    0.707631
H     -5.756807   -0.034422   -0.737756
H      4.848293    1.245144    0.858349
H      5.141373    1.762091   -0.837715
H     -2.139128    1.450063    1.407467
H     -1.389967   -0.145205    1.370784
H     -8.057754   -0.528063   -0.864932
H     -8.112320   -1.278047    0.761200
H      2.561698    2.025448   -1.073531
H      1.401831   -0.199304    0.596404
H     -1.611777    3.280979    0.284690
H     -1.323579    4.097357   -1.353989
H      3.484968   -0.674903    0.072521
H     -0.681336   -0.018179   -0.849140
H      0.022227    1.833144    1.283950
H     -0.800330    1.880904   -2.271871
H      0.723998    2.770824   -1.524631
H      2.998002   -0.796164   -2.167546
H     -3.265735    2.746528   -1.938681
H      1.534083    4.402895   -0.424486
H     -6.691113   -4.386400   -0.359075
