55

C     -4.856758   -3.270031    0.586907
C     -5.813098   -2.678784   -0.431760
C     -5.330613   -1.346847   -0.893247
C     -5.186450   -0.336705    0.249812
C     -4.694243    0.995443   -0.359332
C     -4.523947    2.024311    0.638745
C     -3.394946    2.619212    0.893026
C     -2.163604    2.296318    0.179034
C     -1.082465    1.816689    1.048097
C      0.095969    2.382728    1.176518
C      0.494212    3.560070    0.479594
C      1.567204    3.599427   -0.478949
C      2.300229    2.639372   -0.934009
C      2.141632    1.268095   -0.521488
C      5.227464   -0.802326    0.164550
C      2.983201    0.357849   -1.074389
C      4.372981   -1.577180   -0.831168
C      6.677551   -1.261823    0.061622
C      2.929047   -1.074636   -0.739082
C      6.742388   -2.693438    0.380974
O      2.534842   -1.230885    0.584226
O      6.218946   -3.219405    1.416071
O      7.410518   -3.562522   -0.482503
H     -4.832374   -2.630227    1.485016
H     -3.849131   -3.368992    0.136979
H     -5.161463   -4.312628    0.868227
H     -6.855234   -2.666559   -0.091727
H     -5.752265   -3.355488   -1.338071
H     -4.294608   -1.479501   -1.294443
H     -5.926730   -0.916671   -1.705457
H     -4.483044   -0.679279    1.022304
H     -6.209483   -0.136316    0.616502
H     -5.611857    1.315249   -0.970830
H     -3.942478    0.817235   -1.107838
H     -5.433136    2.313103    1.215354
H     -3.397384    3.393299    1.681824
H     -1.854204    3.228471   -0.340166
H     -2.268836    1.574407   -0.660199
H     -1.329613    0.889577    1.627582
H      0.781844    1.918942    1.906180
H      0.872061    4.279920    1.340364
H     -0.357599    4.218477    0.115790
H      1.844628    4.608576   -0.929837
H      3.107666    2.885141   -1.692765
H      1.450508    0.829693    0.142924
H      4.904885   -0.994906    1.208148
H      5.217343    0.278468   -0.057189
H      3.707083    0.699238   -1.781543
H      4.440075   -2.648825   -0.658599
H      4.741007   -1.346427   -1.835129
H      7.101258   -1.063938   -0.919239
H      7.262632   -0.724044    0.839648
H      2.294941   -1.678350   -1.403413
H      1.544322   -1.258388    0.627674
H      7.639128   -4.494185   -0.178241
