73

C     -6.470736   -2.321456    0.641142
C     -7.370415   -0.253343    1.570938
C     -5.676611   -0.887249   -1.784938
C      4.628199   -0.096795   -2.616812
C     -2.954978    0.397008    2.176378
C      0.339722    0.044334    1.746714
C      1.084339    3.007153    1.474524
C      2.259676    2.129097    1.224332
C     -4.850343    0.049433    0.356593
C     -3.660548   -0.400584   -0.013115
C      5.951566   -1.977313   -1.700825
C      3.088272    0.546978   -0.472670
C      4.396934    0.731945    0.095426
C      6.916919   -2.095910   -0.551653
C     -1.135765   -0.142091   -1.136063
C      0.379434   -0.201928   -1.109162
C     -0.259765    2.407967    1.340209
C      6.843712    0.301558    0.169553
C     -7.041694   -0.978474    0.274198
C     -6.031682   -0.160359   -0.529258
C      5.320613   -0.637588   -1.624985
C     -2.477427   -0.184785    0.885598
C      2.056658    1.217049    0.068517
C      5.452877    0.141690   -0.408387
C      7.718474   -0.844634   -0.292999
C     -1.505390    0.604579    0.125966
C      0.685777    1.100069   -0.430741
C     -0.236682    1.026192    0.790998
O      8.350875   -0.480198   -1.475433
H     -7.125637   -2.722640    1.468935
H     -6.478093   -3.006163   -0.222788
H     -5.454501   -2.213424    1.088429
H     -7.611932    0.801989    1.421189
H     -6.521854   -0.412625    2.280556
H     -8.233561   -0.797827    2.025435
H     -4.957425   -0.280343   -2.372429
H     -5.313530   -1.905578   -1.593178
H     -6.597259   -0.977600   -2.393903
H      4.524831   -0.694788   -3.539212
H      4.176177    0.861602   -2.658972
H     -3.375385    1.396229    2.117565
H     -3.737411   -0.270306    2.595861
H     -2.114114    0.345683    2.930060
H     -0.243405   -0.887861    1.873560
H      0.507338    0.555132    2.740297
H      1.346467   -0.289086    1.421672
H      1.233846    3.512935    2.455692
H      1.168452    3.854756    0.727522
H      3.131463    2.784074    0.914265
H      2.558043    1.634979    2.150469
H     -5.041326    0.575779    1.281996
H     -3.587320   -0.914149   -0.961779
H      5.166715   -2.747699   -1.543929
H      6.504547   -2.124813   -2.649385
H      2.792709   -0.104182   -1.261452
H      4.563962    1.376806    0.979071
H      6.377863   -2.432760    0.375971
H      7.635674   -2.901984   -0.806062
H     -1.583177   -1.156873   -1.172281
H     -1.394817    0.435693   -2.061083
H      0.649140   -1.063671   -0.478159
H      0.819780   -0.296089   -2.109982
H     -0.896364    3.018023    0.650863
H     -0.766032    2.492756    2.325202
H      7.282053    1.237651   -0.220997
H      6.810862    0.257076    1.275571
H     -7.985432   -1.120865   -0.269577
H     -6.482125    0.820448   -0.776192
H     -2.078610   -1.201509    1.093119
H      8.481416   -1.068210    0.459260
H     -2.020930    1.550176   -0.210486
H      0.353119    1.921747   -1.071545
H      7.713772    0.115166   -1.980355
