73

C     -7.182637   -0.283984   -0.196585
C     -7.860027   -1.088900    1.996128
C     -4.984083   -1.126977    2.810909
C      4.772697    1.324049    1.931768
C     -3.226873    1.114031   -2.272667
C     -0.239899   -0.808572   -1.486897
C      1.198981    0.831758   -3.241500
C      2.369414    0.660655   -2.374024
C     -4.418960   -0.435955    0.556366
C     -3.845315    0.631882    0.062327
C      5.883853   -0.829429    2.499259
C      3.126789    0.535767   -0.109618
C      4.414234    0.168787   -0.663930
C      6.805237   -1.730536    1.746159
C     -1.090756    0.475537    0.837092
C      0.412132    0.419986    0.862410
C     -0.037363    1.423787   -2.598482
C      6.814777   -0.436622   -0.395399
C     -6.715692   -1.048954    1.005457
C     -5.489653   -0.393481    1.600661
C      5.356428    0.197115    1.567118
C     -2.796436    0.507717   -0.965631
C      2.098793    0.784202   -0.926919
C      5.468645   -0.043445    0.128444
C      7.634208   -1.006921    0.712730
C     -1.483489    1.096652   -0.532534
C      0.823441    1.156293   -0.372103
C     -0.293156    0.696387   -1.334399
O      8.483668   -0.078583    1.300407
H     -6.328238    0.231085   -0.691068
H     -7.622513   -0.983065   -0.926238
H     -7.995987    0.443223    0.055347
H     -7.541282   -1.425963    3.003944
H     -8.624028   -1.818077    1.655953
H     -8.354712   -0.097940    2.042446
H     -5.659194   -1.030125    3.683250
H     -4.797901   -2.179207    2.520759
H     -4.008581   -0.669098    3.087249
H      4.685030    1.478233    3.004230
H      4.411629    2.095876    1.311459
H     -2.786533    2.126074   -2.360641
H     -2.995359    0.512231   -3.156213
H     -4.351045    1.333902   -2.239792
H     -0.776215   -1.346052   -0.679747
H      0.826617   -1.173967   -1.418450
H     -0.679855   -1.144497   -2.446547
H      1.453111    1.482416   -4.106219
H      0.876867   -0.140940   -3.705051
H      2.777859   -0.382145   -2.543831
H      3.232123    1.328363   -2.678142
H     -4.115771   -1.409351    0.202832
H     -4.138737    1.605521    0.406327
H      6.354916   -0.374137    3.396099
H      5.012264   -1.439234    2.834821
H      2.879705    0.583460    0.924910
H      4.586649    0.052113   -1.721738
H      6.245539   -2.575509    1.329395
H      7.544939   -2.174660    2.473905
H     -1.591766   -0.494206    0.973533
H     -1.480428    1.141580    1.638708
H      0.726036   -0.642614    0.788367
H      0.799271    0.859913    1.800875
H      0.210327    2.476310   -2.357111
H     -0.834900    1.332910   -3.335486
H      7.319306    0.463356   -0.801873
H      6.705697   -1.140637   -1.243591
H     -6.527500   -2.098431    0.698514
H     -5.758616    0.623649    1.885129
H     -2.577851   -0.575091   -1.202875
H      8.305703   -1.788648    0.257691
H     -1.518550    2.194343   -0.383258
H      0.679488    2.250945   -0.252411
H      9.433526   -0.224156    1.105580
