59

C     -7.737003    0.892305    0.974314
C     -7.045851    0.203218   -0.167810
C     -6.341891    1.164389   -1.094302
C      4.060929    0.686425   -1.302696
C      4.774255    0.459020    0.000851
C     -5.279186    1.976169   -0.445423
C      2.597093    0.302910   -1.217939
C      6.209213    0.873169   -0.157033
C     -4.147018    1.222973    0.158072
C      2.422950   -1.130150   -0.852378
C      7.014033    0.650876    1.125909
C     -2.244014   -0.324108   -0.085436
C     -0.990361   -0.070526   -0.364486
C     -0.320082   -3.006485    0.559812
C     -3.369575    0.399465   -0.806357
C      0.975244   -1.499729   -0.779502
C      0.195830   -0.696054    0.254836
C      0.822330   -2.918035   -0.396078
C     -0.151345   -1.695470    1.316622
C      8.406717    1.068639    0.933122
O     -4.192477   -0.592806   -1.325338
O      1.455643   -3.896526   -0.738369
O      0.868934   -1.809069    2.270849
O      8.688934    2.256190    0.543031
O      9.447783    0.171927    1.169848
H     -7.539845    0.364154    1.926982
H     -7.499786    1.975283    1.038979
H     -8.843098    0.843411    0.827740
H     -7.823185   -0.318853   -0.786225
H     -6.414537   -0.590168    0.240090
H     -7.138510    1.895787   -1.422186
H     -6.049517    0.636848   -1.998904
H      4.077449    1.780223   -1.517131
H      4.569914    0.181101   -2.140131
H      4.335300    1.083361    0.800032
H      4.771736   -0.623596    0.260972
H     -5.722641    2.643945    0.307192
H     -4.864375    2.665174   -1.234453
H      2.018808    1.019877   -0.612737
H      2.206204    0.415074   -2.269870
H      6.740640    0.281370   -0.944619
H      6.307323    1.931809   -0.477150
H     -4.456641    0.644595    1.048158
H     -3.435285    2.001305    0.563930
H      2.876960   -1.388478    0.128072
H      2.867514   -1.744223   -1.673745
H      6.587643    1.270341    1.956260
H      6.980403   -0.416220    1.402918
H     -2.484020   -1.063085    0.662043
H     -0.806168    0.702112   -1.149871
H     -0.306645   -3.891238    1.197113
H     -1.249906   -3.002934   -0.037176
H     -2.909001    0.974268   -1.619696
H      0.468081   -1.372723   -1.781323
H      0.869451    0.060734    0.711618
H     -1.063117   -1.495511    1.873242
H     -4.226698   -1.321249   -0.625771
H      0.737731   -1.099893    2.967931
H     10.296735    0.268684    0.612601
