36

C     -1.202359    2.793367    0.784626
C      4.226646    0.363931   -0.352003
C     -2.387585   -0.735868    1.498335
C     -0.561059   -2.173770    0.632302
C      1.873648   -0.127319   -0.159852
C      0.645822    0.192730   -0.566330
C     -2.100986    1.385594   -1.033446
C     -2.128119   -1.117793   -0.896786
C     -1.302999    1.515110    0.012107
C      3.035701   -0.261074   -1.057805
C     -2.135546    0.108576   -1.723543
C     -1.357675   -0.927264    0.384650
C     -0.503188    0.317277    0.379986
O      3.349782   -1.590130   -1.330915
O     -2.170664    0.116861   -2.987610
O      0.037318    0.560610    1.636549
H     -0.350403    3.377678    0.434667
H     -1.114578    2.490505    1.868806
H     -2.107596    3.396898    0.711824
H      4.072442    1.458186   -0.381273
H      4.213912   -0.016902    0.708690
H      5.175017    0.127673   -0.867311
H     -3.258597   -0.175917    1.101680
H     -1.975546   -0.140502    2.335028
H     -2.693300   -1.716630    1.926108
H     -0.490494   -2.404136    1.735640
H      0.468563   -2.116226    0.222915
H     -1.019813   -3.076969    0.178314
H      1.997329   -0.294356    0.903241
H      0.497276    0.364811   -1.626756
H     -2.696069    2.242907   -1.336272
H     -3.164408   -1.484802   -0.688765
H     -1.647787   -1.911478   -1.506005
H      2.835152    0.246707   -2.027315
H      3.367634   -2.157006   -0.541957
H      0.572531    1.368721    1.628475
