55

C      7.633583    0.921808    0.247246
C      5.158217    0.833504   -1.136990
C      6.462775    0.154559    0.779096
C     -5.924054    0.942236    0.347202
C     -4.903694    0.257985   -0.574839
C     -5.419752    2.250132    0.867009
C      1.552758   -2.505032   -0.482852
C      0.072603   -2.673716   -0.502532
C     -2.097313    0.400068   -1.374024
C      0.666280   -0.557554    0.778247
C     -2.072834   -1.849211   -0.877707
C     -1.607582    1.369184    0.712295
C      5.308434    0.106105    0.145469
C     -2.564819   -0.641196   -0.343581
C     -0.895048    0.921975   -0.571511
C      1.891299   -1.407523    0.509884
C     -3.706975   -0.037811    0.255371
C     -0.114151   -0.360204   -0.472497
C     -3.948941    2.344933    0.896138
C      4.156309   -0.632396    0.641380
N     -0.630151   -1.556167   -1.082084
N     -3.084659    1.284502    0.637457
O     -3.450019    3.471801    1.176499
O      4.298486   -1.245833    1.731785
O      2.951025   -0.673272   -0.035824
H      7.392795    1.463699   -0.664751
H      8.020074    1.631194    1.031920
H      8.445615    0.198584    0.061543
H      5.907429    0.528831   -1.896250
H      5.359014    1.928693   -0.943337
H      4.168559    0.706516   -1.587268
H      6.527064   -0.390080    1.709812
H     -6.132842    0.207222    1.173877
H     -6.892350    1.054685   -0.198208
H     -5.365084   -0.683506   -0.903829
H     -4.759760    0.926091   -1.416963
H     -5.856582    2.385587    1.898130
H     -5.881726    3.060290    0.247196
H      2.000903   -3.452912   -0.120582
H      1.992218   -2.308135   -1.479468
H     -0.271611   -2.752546    0.556102
H     -0.266449   -3.616808   -0.999015
H     -2.750836    1.252201   -1.503893
H     -1.817371    0.014263   -2.336738
H      0.181978   -0.948976    1.652989
H      1.070610    0.458733    1.057788
H     -2.236089   -2.735917   -0.271867
H     -2.479974   -2.072602   -1.902033
H     -1.202461    0.927625    1.613024
H     -1.419183    2.476668    0.785636
H     -1.934123   -0.688492    0.620883
H     -0.430654    1.743916   -1.100066
H      2.228081   -1.862446    1.460030
H     -4.076416   -0.422851    1.243683
H      0.747391   -0.148404   -1.209161
