30

C      2.728192   -1.123177    0.893161
C      1.524858    0.428756   -0.378667
C      3.780946   -0.231308   -1.169672
C     -2.947792    2.410095    0.156098
C     -1.073339   -1.596028    0.267462
C      2.942803    0.083953    0.040864
C      1.485675   -1.166341    1.328484
C      0.737409   -0.000423    0.818709
C     -2.765101   -0.246340   -0.016991
C     -3.985691    0.358480   -0.252178
C     -1.638801    0.482828    0.304522
F      1.031879   -2.181619    2.134801
N     -5.160114   -0.391019   -0.586557
N     -4.056936    1.699884   -0.159883
N     -1.765082    1.829611    0.384438
N     -2.392306   -1.537375   -0.034968
N     -0.614129   -0.364588    0.474378
O      3.951841    0.907478   -1.923027
H      3.530453   -1.850719    1.101400
H      1.200520   -0.189414   -1.253023
H      1.371760    1.497670   -0.551534
H      3.285177   -1.036613   -1.736590
H      4.771869   -0.602986   -0.862939
H     -3.028287    3.485296    0.224625
H     -0.545924   -2.544733    0.313295
H      3.359190    0.919878    0.630568
H      0.719362    0.776511    1.622179
H     -5.295429   -0.724655   -1.555907
H     -5.841397   -0.567970    0.190036
H      4.688396    1.474868   -1.579147
