27

C     -3.068280   -0.401666   -0.799435
C     -1.772953   -0.459775   -0.300743
C      2.306308    0.765125    0.063043
C      0.700340   -0.893605    0.313804
C      2.993165   -1.503885   -0.445688
C      2.215293   -0.662243    0.536472
C      1.148076    1.393592    0.187439
C      0.161128    0.474264    0.752692
C     -3.749418    0.789924   -0.712351
C     -1.861378    1.768178    0.334539
F      1.004223    2.708895   -0.189255
N     -3.112692    1.817562   -0.149280
N     -1.177977    0.604814    0.256423
O      4.320424   -1.080226   -0.475882
O     -5.052534    0.878150   -1.205249
O     -1.323268    2.805395    0.862369
H     -3.570595   -1.240581   -1.251998
H     -1.311653   -1.441368   -0.406621
H      3.253345    1.170048   -0.327143
H      0.591176   -0.953767   -0.771988
H      0.328020   -1.721400    0.905787
H      2.570774   -1.320788   -1.457027
H      2.910338   -2.584495   -0.230587
H      2.507447   -0.799053    1.573526
H      0.186317    0.458990    1.875896
H      4.577869   -0.915983    0.467696
H     -5.773493    0.343901   -0.766366
