30

C     -2.448997   -0.707641   -1.365108
C     -1.811570   -0.120937    0.797397
C     -4.204550    0.219233    0.140267
C      3.341918   -1.034175   -1.870852
C      0.809590    0.704538    1.282424
C     -2.996023   -0.679309    0.037926
C     -1.125428   -0.795897   -1.315994
C     -0.671077   -0.834088    0.075713
C      2.672850    0.500699    0.245897
C      3.954423    0.538864   -0.253942
C      1.745116   -0.327731   -0.348107
F     -0.334111   -0.842195   -2.410758
N      4.945991    1.375437    0.322607
N      4.268536   -0.227813   -1.302721
N      2.084166   -1.085224   -1.396529
N      2.082283    1.138205    1.258323
N      0.589773   -0.186541    0.312270
O     -3.932992    1.521265   -0.202854
H     -3.104958   -0.659134   -2.222128
H     -1.837115   -0.345518    1.870142
H     -1.702772    0.985678    0.601592
H     -5.032835   -0.217204   -0.438782
H     -4.520520    0.208894    1.203202
H      3.672064   -1.629106   -2.721465
H      0.078360    1.053444    2.010218
H     -3.206465   -1.679902    0.432626
H     -0.698467   -1.884900    0.424263
H      5.811006    1.632436   -0.202125
H      4.852108    1.764269    1.285339
H     -3.280304    1.614354   -0.947373
