78

C     -3.387973    2.947873   -1.182184
C      3.569456    0.856399   -2.050057
C      5.024856   -1.977964   -0.203966
C     -3.157912   -2.645677    1.380301
C     -3.396494   -2.292384   -1.058940
C     -3.496902    1.517202   -0.594333
C     -2.901582    1.504255    0.795206
C     -0.054519   -2.654556   -0.126282
C     -1.314163   -3.038735   -0.124888
C     -1.107362    3.188378    1.109371
C      3.953581    0.209215   -0.733450
C      3.786665   -1.275853   -0.757110
C     -1.481439    1.854554    0.856003
C      0.243350   -1.259226    0.131107
C      0.225929    3.509856    1.098398
C     -0.497349    0.936643    0.612477
C      1.819562    0.470859    0.386460
C      3.246544    0.887537    0.389598
C      1.550636   -0.849664    0.136672
C     -0.804513   -0.387363    0.367011
C      0.811829    1.393485    0.630453
C     -2.454847   -2.147183    0.121608
O      0.518090    4.732287    1.332755
O      3.840409    0.627296    1.637399
O      2.612487   -1.707181   -0.097669
O      1.164645    2.633318    0.863831
O     -2.117560   -0.810441    0.363519
C     -2.610259   -0.188737   -1.058772
C     -2.499061   -0.119211    1.409468
C      0.288414    1.384167   -0.084848
C      1.631304    1.567273   -0.392213
C      0.004494   -1.050961    0.032951
C     -1.920304    0.442858    0.135462
C     -0.472314    0.241985    0.022666
C      2.625478    0.625408   -0.226502
C      1.312856   -1.499234   -0.045691
C      2.467525   -0.744978   -0.086072
O      3.939017    1.089669   -0.195006
O      1.449360   -2.753836   -0.084384
O      3.676856   -1.457771    0.031610
H     -4.166571    3.104245   -1.947933
H     -2.366093    3.159619   -1.506356
H     -3.621972    3.627325   -0.335668
H      2.483179    1.133996   -2.043093
H      3.814761    0.165874   -2.890132
H      4.178158    1.772867   -2.202496
H      4.778389   -3.062412   -0.132988
H      5.847190   -1.778296   -0.913690
H      5.215901   -1.534509    0.796347
H     -2.358836   -2.797392    2.160525
H     -3.627972   -3.606035    1.149922
H     -3.839498   -1.848909    1.689261
H     -4.437198   -2.170020   -0.668769
H     -3.224054   -1.551595   -1.849158
H     -3.355415   -3.305838   -1.499637
H     -4.571200    1.308719   -0.518986
H     -2.996012    0.904962   -1.344991
H     -3.259081    0.713085    1.459458
H     -3.437248    2.402578    1.279040
H      0.759603   -3.344089   -0.314050
H     -1.541816   -4.079050   -0.316088
H     -1.887118    3.907572    1.302435
H      5.054154    0.413547   -0.613344
H      3.703346   -1.598116   -1.816545
H      3.289025    1.986267    0.203253
H      3.370957   -0.147328    2.043360
H     -2.551188   -1.288089   -1.051238
H     -3.679383    0.140472   -1.000238
H     -2.159909    0.276257   -1.961584
H     -2.440118    0.634864    2.223451
H     -2.023739   -1.064289    1.724235
H     -3.575339   -0.306902    1.217805
H     -0.258877    2.300233    0.103947
H      1.934703    2.507487   -0.789724
H     -0.738144   -1.857467    0.114186
H     -2.160340    1.517918    0.113749
H      4.126114    2.066679   -0.290445
H      3.632856   -2.463796    0.137188
