39

C      4.189804   -0.990390   -0.426373
C      3.316204    0.893290   -1.610087
C     -1.782537    0.510264   -1.927254
C     -0.333090    1.704489    0.146558
C     -1.725043   -0.232026    2.276196
C     -2.844668   -0.852252    1.471368
C      0.511723   -1.050949    2.037305
C      0.719603   -0.316616   -0.712635
C      3.186173   -0.188661   -0.547734
C     -1.737297   -0.214532   -0.621916
C     -0.471971   -0.396145    1.456038
C      1.956107   -0.200013    0.203727
C     -2.947663    0.022829    0.211526
C      1.749111   -1.214407    1.237504
C     -0.462435    0.180378    0.098578
O     -4.094145   -0.364342   -0.440727
O      2.493186   -2.181063    1.505981
H      5.092167   -0.889569   -1.064554
H      4.242784   -1.793494    0.274657
H      4.372714    1.253047   -1.635051
H      3.015974    0.526335   -2.592210
H      2.687232    1.766348   -1.357019
H     -0.867820    0.197733   -2.511255
H     -2.638090    0.213779   -2.568040
H     -1.710869    1.601287   -1.835062
H     -1.330021    2.184238    0.081184
H      0.228274    2.042422   -0.746935
H      0.185179    2.033957    1.050005
H     -1.630878   -0.654893    3.277329
H     -1.857383    0.887933    2.346682
H     -3.757431   -0.803268    2.070686
H     -2.542103   -1.864170    1.181107
H      0.437869   -1.462777    3.043229
H      0.930471    0.361188   -1.562295
H      0.544132   -1.356816   -0.994649
H     -1.650386   -1.300094   -0.831238
H      1.776440    0.807011    0.727108
H     -2.994121    1.068795    0.588730
H     -4.257192    0.071154   -1.300464
