50

C     -0.421506   -1.847246   -0.880470
C     -5.407750    0.665154   -0.283601
C     -5.044505   -0.673788   -0.961010
C      1.126519    2.830449   -0.032890
C      3.650988   -2.805538    0.202106
C      4.004977   -0.018201   -0.127350
C     -2.597935    0.647935    1.616878
C     -2.848158    0.695161   -0.732649
C      2.082143    1.843466   -0.074809
C      4.356342    1.311938   -0.223826
C      2.682633   -2.845055   -0.932840
C     -0.187138    2.459699    0.105500
C      2.460833   -1.864498    0.126769
C     -3.662904   -0.386075    1.221945
C      1.765526    0.482609    0.017785
C     -0.523332    1.132319    0.197152
C      3.377104    2.261169   -0.196800
C      0.451256    0.149339    0.152442
C      5.745141    1.736152   -0.354138
C     -4.061987    0.059693   -0.135600
F      3.092695   -2.462458   -2.197137
F     -1.168948    3.423224    0.152292
N     -4.769144   -0.292777    2.133908
N     -1.902381    0.832179    0.354135
N      2.719043   -0.451057   -0.005701
O      3.658473    3.512850   -0.283151
O      6.051330    2.945073   -0.440904
O      6.779991    0.793751   -0.385765
O      0.020014   -1.134494    0.244352
H     -1.545120   -1.869356   -0.946570
H     -0.063074   -1.461407   -1.849476
H     -0.154380   -2.931168   -0.844611
H     -6.077095    0.626819    0.592325
H     -5.448607    1.561295   -0.945093
H     -4.907035   -0.615455   -2.064152
H     -5.529845   -1.585201   -0.530958
H      1.346468    3.886686   -0.102559
H      4.649067   -2.544701   -0.094814
H      3.638168   -3.638689    0.958393
H      4.860857   -0.694690   -0.156942
H     -1.950120    0.272998    2.415449
H     -3.095428    1.589312    1.923071
H     -3.125549    1.734175   -1.120917
H     -2.418713    0.197030   -1.599266
H      2.070353   -3.769147   -0.955294
H      1.749928   -2.141930    0.973370
H     -3.151999   -1.368358    1.237228
H     -4.482980   -0.411886    3.130389
H     -5.519117   -0.945367    1.854040
H      7.724904    1.108066   -0.253389
