65

C     -3.833140   -1.324353    0.572413
C      5.814629    0.214647    0.175362
C      5.358583    0.871810    1.450173
C     -2.520645   -1.412775    0.329455
C     -3.292810    0.440671   -0.843445
C     -5.589659    0.385583    0.174018
C     -0.577464    1.156786   -1.395662
C     -4.481819   -0.441399   -0.445737
C      4.856092    1.344405    0.136694
C     -2.185623   -0.612355   -0.848736
C      1.256306    0.474508   -0.451167
C      2.572689    0.275838    0.058254
C      0.257842   -0.426069   -0.226490
C      1.687855   -1.734813    0.961469
N      1.972581   -2.789652    1.659619
N      0.707219    1.464508   -1.190382
N      3.509675    1.253336   -0.263593
N      2.711119   -0.843236    0.748965
N      0.455486   -1.537991    0.478893
N     -0.890844   -0.002805   -0.815748
O     -6.140686    1.174066   -0.824061
C      2.779355    1.076162    0.361697
C      1.427519    0.859441    0.167393
C     -3.614592    1.075103    0.070716
C     -0.751962   -0.864788   -1.708735
C      3.619539   -0.017157    0.353882
C     -0.465762   -0.581587   -0.223838
C     -2.588488   -0.030295    0.114092
C      1.759682   -1.404949   -0.027527
N      4.890122    0.126859    0.530246
N      3.101039   -1.229288    0.161148
N      0.912963   -0.363435   -0.025969
O     -3.489377    1.879841    1.176455
O      1.335558   -2.710583   -0.218071
O     -1.285105    0.462412    0.136184
S     -2.588423   -0.828767   -1.547022
H     -4.328222   -1.829657    1.394608
H      6.881974    0.482402   -0.098881
H      5.520405   -0.785225   -0.121643
H      4.797794    0.344090    2.201228
H      6.125474    1.552619    1.956647
H     -1.831115   -2.006405    0.943909
H     -3.165905    1.168088   -0.019809
H     -3.432937    0.905680   -1.820240
H     -6.356543   -0.314077    0.524848
H     -5.184463    0.956413    1.022294
H     -1.228035    1.827595   -1.979804
H     -4.801058   -0.971446   -1.341118
H      5.351326    2.357686   -0.195834
H     -2.351113   -1.203057   -1.787667
H      1.255083   -3.502599    1.859644
H      3.184344    2.067862   -0.915352
H      3.645331   -1.066116    1.132751
H     -5.729728    2.085439   -0.871630
H      3.192068    2.058815    0.516985
H      0.779127    1.718064    0.174983
H     -4.614316    0.584228    0.127656
H     -3.594147    1.632936   -0.871617
H     -0.393213   -1.844468   -1.998648
H     -0.405039   -0.021763   -2.299809
H     -0.775822   -1.503046    0.349110
H     -2.752206   -0.751183    0.909313
H      5.337121    1.045784    0.683193
H     -3.269321    2.806060    0.870803
H      1.453680   -3.174397   -1.132152
