65

C      3.943882    1.720211    0.055285
C     -6.126731   -0.429761    0.622027
C     -5.421270   -1.648316    0.061293
C      2.793830    1.885232    0.701001
C      2.972102   -0.377551    0.235410
C      5.048731   -0.162486   -1.148207
C      0.270666    0.466554    2.522754
C      4.352647    0.280660    0.105088
C     -4.781774   -0.267677    0.006453
C      2.352339    0.587664    1.224235
C     -1.207389    0.187140    0.977272
C     -2.340242    0.004632    0.196278
C      0.023892    0.271887    0.376742
C     -0.920871    0.007356   -1.706118
N     -0.826034   -0.084124   -3.002296
N     -1.037801    0.308027    2.287617
N     -3.619260   -0.088550    0.822315
N     -2.138789   -0.077741   -1.127434
N      0.166017    0.184212   -0.935618
N      0.936012    0.445526    1.345875
O      5.385638   -1.489490   -1.013477
C     -3.343794   -0.708428   -0.038116
C     -2.030687   -0.954423   -0.375262
C      3.608796    0.720886    0.359721
C      0.504624   -0.405114   -1.825697
C     -3.635674    0.350204    0.792605
C      0.307024   -0.499436   -0.303272
C      2.497658   -0.225596    0.016063
C     -1.369056    0.841813    0.900393
N     -4.829840    0.634365    1.144714
N     -2.629595    1.108727    1.247199
N     -1.017355   -0.172694    0.095964
O      4.814686    0.056266    0.052664
O     -0.365806    1.649539    1.392365
O      1.240766    0.319899    0.277941
S      2.350026   -0.421688   -1.810349
H      4.559315    2.467506   -0.459272
H     -6.288558   -0.336779    1.701280
H     -6.988624   -0.113086    0.001359
H     -5.066064   -2.363313    0.815547
H     -5.728264   -2.042137   -0.932924
H      2.306961    2.851887    0.792921
H      2.485418   -0.311183   -0.738588
H      3.055534   -1.397397    0.638156
H      5.981235    0.418768   -1.233880
H      4.459123    0.050706   -2.062573
H      0.742008    0.594064    3.505511
H      4.962574    0.031995    0.971930
H     -4.741637    0.263197   -0.982272
H      2.860757    0.419700    2.193995
H     -1.701976   -0.220478   -3.544430
H     -3.651311   -0.020682    1.868160
H     -2.982309   -0.221242   -1.757547
H      5.910223   -1.794930   -1.796878
H     -4.171394   -1.307456   -0.393290
H     -1.804454   -1.780588   -1.023405
H      3.608120    1.637946   -0.226207
H      3.598511    0.865561    1.453973
H      0.126587    0.538988   -2.226298
H      0.108960   -1.310502   -2.307232
H      0.584858   -1.554310   -0.041241
H      2.604841   -1.217746    0.450208
H     -5.636156    0.054535    0.801519
H      4.958132   -0.726100    0.648101
H     -0.079777    2.505353    0.936935
