46

C      4.968213    1.775110    1.970448
C      4.112028    2.422513   -0.356462
C      2.731020    1.175612    1.247038
C     -3.183390    0.176882    1.851841
C      1.598869    1.116920    0.277851
C     -2.368627    0.045900    0.706772
C     -5.060451    0.585409    0.510492
C      1.855792   -2.597683   -0.068525
C     -1.943948   -1.015605   -2.586166
C      3.874098    1.762555    0.952893
C     -4.526282    0.442337    1.774103
C     -2.894317    0.190613   -0.569317
C      1.302731   -0.268910   -0.119259
C     -4.283212    0.467570   -0.616132
C      2.126204   -1.289501    0.268731
C      0.742856   -2.896171   -0.814476
C     -1.271195   -2.160685   -2.005454
C     -2.071191    0.213965   -1.752948
C     -0.089607   -1.869551   -1.209889
C      0.166503   -0.525704   -0.873250
O     -5.327756    0.562564    2.918414
O     -4.773465    0.598676   -1.917368
O      3.257133   -0.942136    1.022349
O      0.418867   -4.210437   -1.191193
O     -1.653248   -3.321811   -2.158023
O     -0.693737    0.445073   -1.289533
H      4.963143    2.731083    2.482825
H      4.809506    0.899018    2.638374
H      5.954709    1.681750    1.447336
H      5.164167    2.688365   -0.449759
H      3.514133    3.356112   -0.490177
H      3.891221    1.703342   -1.188638
H      2.588229    0.749247    2.235324
H     -2.740444    0.067215    2.854111
H      0.671280    1.522403    0.753479
H      1.834802    1.718121   -0.637806
H     -1.330817   -0.148423    0.890452
H     -6.139810    0.789138    0.376128
H      2.526504   -3.371596    0.253945
H     -1.261371   -0.676210   -3.436682
H     -2.894890   -1.273257   -3.121670
H     -2.267597    1.068358   -2.420362
H     -5.480248    1.443825    3.386350
H     -5.769366    0.783888   -1.988443
H      3.922152   -1.654688    1.367473
H      1.030809   -4.961197   -0.925196
