47

C      1.114707   -2.674726   -1.800421
C     -1.065231   -3.335352   -1.288775
C      1.281327    3.704226   -0.638938
C     -2.685482    1.174210   -0.869714
C     -1.619989    1.289165    1.226233
C     -3.064767    2.495894   -0.763943
C     -1.999635    2.611199    1.331539
C      1.604612   -2.546925    1.110201
C      0.422768   -3.109137    0.454944
C     -1.566999   -0.895123   -0.018404
C      2.726574   -0.351576    1.494289
C      1.015225    0.916953   -0.180122
C     -1.958565    0.526576    0.106302
C      1.720832   -1.091805    0.868071
C     -2.726716    3.242078    0.344739
C      0.852061   -0.463315    0.022355
C     -0.265844   -1.135196   -0.707258
C      2.887959    0.990254    1.300256
C      2.013493    1.632716    0.445901
N      0.050719   -2.545238   -0.824624
O     -3.106483    4.586686    0.463926
O      3.910545    1.716096    1.943585
O      2.143431    2.985934    0.223680
H      1.898838   -1.897740   -1.635473
H      1.580463   -3.681241   -1.782630
H      0.711552   -2.516510   -2.814604
H     -1.652812   -3.778780   -0.448759
H     -1.691399   -2.810965   -2.027013
H     -0.626746   -4.219652   -1.826771
H      1.485853    3.366616   -1.684709
H      1.395916    4.789278   -0.536199
H      0.227939    3.438622   -0.330172
H     -2.952870    0.596934   -1.738557
H     -1.047715    0.770593    1.989148
H     -3.635783    2.973935   -1.549818
H     -1.716086    3.170112    2.219614
H      2.566095   -3.009292    0.773481
H      1.508997   -2.728739    2.210683
H      0.623903   -4.201182    0.242759
H     -0.446069   -3.074671    1.129233
H     -2.377061   -1.474972   -0.506443
H     -1.493471   -1.335889    1.020307
H      3.373957   -0.901322    2.144504
H      0.365933    1.469556   -0.840247
H     -0.301863   -0.689982   -1.718522
H     -4.005389    4.823321    0.907870
H      4.523277    1.198375    2.558493
