32

C      2.376597   -1.498717    0.353283
C      1.012423   -1.655834    0.482990
C     -1.842869   -1.128749    1.208265
C      2.487261    2.579871    0.251326
C      2.599728   -0.157393    0.302496
C     -0.956855   -0.087745    0.629819
C     -3.226336   -0.657436    0.801098
C     -1.629179    0.116790   -0.735487
C     -3.029580    0.428482   -0.225332
C      3.746204    0.611008    0.179156
C      1.387951    0.485436    0.400131
N      5.012131   -0.012903    0.076091
N      3.665540    1.965176    0.156153
N      1.390999    1.838959    0.369407
N      0.415078   -0.442161    0.510958
O     -3.974451   -1.669283    0.208607
O     -1.068780    1.133460   -1.446979
O     -2.944361    1.692330    0.379712
H      3.145907   -2.253966    0.299094
H      0.493377   -2.585052    0.551890
H     -1.670989   -2.101077    0.664085
H     -1.753364   -1.255825    2.299872
H      2.361244    3.659012    0.238709
H     -1.064751    0.846624    1.219853
H     -3.764546   -0.257209    1.708052
H     -1.689455   -0.852933   -1.254090
H     -3.777064    0.422494   -1.022281
H      5.402574   -0.486345    0.910914
H      5.531078    0.007799   -0.818707
H     -3.366314   -2.157643   -0.400088
H     -1.716792    1.670057   -1.979229
H     -3.552405    1.802775    1.129649
