61

C      2.629046    0.079501    1.611532
C     -3.042186   -0.778367    1.884480
C      1.800845   -1.171846   -1.805073
C      0.574744   -1.803354   -1.221437
C      4.162046    1.768469   -0.010336
C      0.063927    1.160649    1.032162
C     -2.979807   -1.558449   -0.808703
C      2.659811    1.702594   -0.209014
C     -1.314619    0.881240    1.467514
C     -1.907942   -2.403589   -0.162756
C     -3.663263    1.894837   -1.303360
C      3.957168   -0.133107   -1.561507
C     -5.018065    0.836544    0.120490
C     -3.709590    0.814841   -0.526604
C      2.795597   -0.694937   -0.773892
C      4.890312    0.696484   -0.754256
C     -2.583532   -0.136547   -0.439312
C      0.667641    0.244158    0.048039
C      0.279209   -1.190653    0.157311
C     -4.884730    2.652384   -1.214977
C      2.201144    0.313514    0.182591
C     -1.980157   -0.319536    0.904845
C     -1.053569   -1.491632    0.682380
O      5.743889   -0.057111    0.049462
O     -5.229044    3.721450   -1.786230
O     -0.949726   -2.131976    1.943639
O     -5.700834    1.977149   -0.332688
H      2.810902    1.055366    2.135192
H      3.580023   -0.496303    1.686926
H      1.888790   -0.470285    2.210743
H     -2.670490   -1.602369    2.564368
H     -3.933344   -1.201944    1.411965
H     -3.272579    0.043966    2.625453
H      2.329173   -1.918014   -2.433495
H      1.575318   -0.303112   -2.467439
H     -0.275064   -1.559212   -1.890028
H      0.744909   -2.884380   -1.107533
H      4.464214    2.804648   -0.320754
H      4.421501    1.687748    1.054421
H      0.734359    1.188634    1.943009
H      0.163593    2.211224    0.622255
H     -2.945102   -1.659324   -1.933960
H     -3.999174   -1.815041   -0.523798
H      2.218521    2.428721    0.524615
H      2.393834    1.967056   -1.238047
H     -1.962808    1.770716    1.210642
H     -1.388829    0.827903    2.594075
H     -1.356936   -2.977766   -0.906210
H     -2.464769   -3.165335    0.460010
H     -2.831465    2.218776   -1.949334
H      3.503575    0.535245   -2.342560
H      4.442370   -0.955285   -2.092530
H     -4.989994    0.928941    1.225483
H     -5.662528   -0.041682   -0.183945
H      3.112235   -1.566856   -0.150663
H      5.568646    1.223200   -1.489117
H     -1.809728    0.133392   -1.179587
H      0.504863    0.671686   -0.987289
H      1.052411   -1.696872    0.813398
H      5.728625    0.361878    0.955701
H     -0.083370   -2.618030    1.983732
