86

C     -3.694818   -4.169787   -1.817817
C     -3.147393   -4.393362   -0.482292
C     -3.263615    4.648756   -0.717807
C     -3.605488   -2.982584   -2.382959
C     -4.051839   -4.026411    0.653869
C     -1.950467    4.598289   -1.424829
C     -3.408705    3.691247    0.385483
C     -2.943599   -1.880347   -1.645469
C     -3.413341   -3.378765    1.823009
C     -1.707246    3.300124   -2.148581
C      7.676035    1.785038    1.764157
C     -2.714541    2.745971    1.013502
C      7.023222    1.838116    0.550369
C      7.020999    1.230850    2.842786
C      5.032462    1.653806   -1.924240
C      1.162805   -1.731446    1.206408
C     -1.489053   -1.745246   -1.967547
C      3.969688    1.423267   -2.775321
C     -1.939399   -3.417846    1.913961
C     -0.646330    2.447693   -1.424110
C      0.204652   -2.819398    1.116922
C     -0.865639    1.196838    1.662866
C      0.532824   -0.403783   -1.685552
C     -1.390461   -1.134809    1.628544
C     -1.346714    2.261107    0.778437
C      5.732750    1.331844    0.461706
C      4.881525    1.270437   -0.628445
C      1.366678   -0.106691   -0.654660
C      0.798782   -0.370887    0.672554
C      5.740171    0.725321    2.766348
C      5.106604    0.790639    1.536164
C      2.644775    0.447082   -1.040231
C      3.693261    0.670402   -0.192969
C     -1.379893    0.289272   -0.446578
C     -0.683856   -0.078414    0.814825
C     -0.925816   -0.383517   -1.673646
N      2.849885    0.853319   -2.345402
N      3.883353    0.402981    1.105060
N     -1.188393   -2.455971    1.199666
N     -1.295320    1.673577   -0.513803
O      5.089237    0.170522    3.853727
O     -1.440479    0.412678   -2.741536
H     -4.183435   -4.985116   -2.357811
H     -2.172879   -3.956353   -0.297426
H     -2.972140   -5.512758   -0.385759
H     -3.347958    5.677036   -0.270202
H     -4.099241    4.560452   -1.420703
H     -4.029618   -2.856951   -3.387963
H     -4.849400   -3.368542    0.250900
H     -4.616124   -4.940532    1.008305
H     -1.106389    4.908193   -0.776261
H     -1.995170    5.391923   -2.228099
H     -4.405841    3.791525    0.827417
H     -3.411652   -0.936863   -2.080244
H     -3.214716   -1.834188   -0.594297
H     -3.831833   -3.842302    2.757057
H     -3.795832   -2.314973    1.886001
H     -1.374506    3.412137   -3.178874
H     -2.702569    2.768521   -2.138713
H      8.698913    2.180728    1.855757
H     -3.287595    2.306997    1.798236
H      7.485704    2.262793   -0.337611
H      7.532213    1.185034    3.809294
H      5.953759    2.111450   -2.227969
H      2.097369   -2.027617    0.636496
H      1.545056   -1.653220    2.270388
H     -0.823214   -2.520512   -1.599451
H     -1.436412   -1.887934   -3.095608
H      4.075246    1.722004   -3.809421
H     -1.575606   -4.437830    1.653888
H     -1.662716   -3.303135    3.004697
H     -0.036114    3.233988   -0.871341
H      0.091436    2.034323   -2.131190
H      0.347153   -3.466053    0.229970
H      0.376199   -3.534275    1.979560
H     -1.522057    1.082648    2.511790
H      0.147736    1.490211    2.067662
H      1.023599   -0.689300   -2.630029
H     -0.958792   -1.041995    2.669902
H     -2.436757   -0.862232    1.722879
H     -0.677879    3.165482    0.812033
H      1.277563    0.371408    1.351098
H     -2.473431    0.030724   -0.297745
H      3.241223   -0.049784    1.740895
H      4.150710   -0.183670    3.736459
H     -0.961300    0.138645   -3.580534
