50

C     -0.404876   -2.000824    0.898365
C     -5.320557   -0.407412    0.910763
C     -4.409729   -1.570852    0.464131
C      1.055514    2.816649   -0.029403
C      3.588499   -2.817865   -0.254419
C      4.001641   -0.019874    0.096475
C     -2.637831    0.515097   -1.553928
C     -2.881272    0.512018    0.799911
C      2.053316    1.842570    0.017343
C      4.382134    1.319901    0.158715
C      2.785057   -2.735404    0.958419
C     -0.264721    2.439152   -0.131492
C      2.425210   -1.818689   -0.117109
C     -4.103566    0.413221   -1.211702
C      1.692422    0.487503   -0.040849
C     -0.618772    1.117483   -0.186940
C      3.373091    2.238711    0.115795
C      0.375083    0.118542   -0.139938
C      5.785421    1.700539    0.263721
C     -4.075430   -0.177196    0.180043
F      3.376833   -2.139851    2.080813
F     -1.254426    3.372444   -0.180055
N     -4.606530    1.779750   -1.107554
N     -1.954584    0.736055   -0.296772
N      2.716783   -0.413119   -0.000385
O      3.621636    3.468318    0.164926
O      6.087436    2.924502    0.317476
O      6.816485    0.797899    0.308624
O     -0.007729   -1.191001   -0.187474
H     -0.075511   -3.050982    0.638536
H      0.032531   -1.745487    1.858448
H     -1.525966   -2.113320    0.959833
H     -6.285960   -0.382836    0.367283
H     -5.311889   -0.152425    1.996186
H     -3.900056   -2.082739    1.304359
H     -4.804604   -2.270076   -0.289427
H      1.318802    3.864603    0.014441
H      4.596381   -2.501852   -0.426590
H      3.378876   -3.774845   -0.849880
H      4.762508   -0.780761    0.139452
H     -2.347901   -0.450780   -2.017831
H     -2.513964    1.369106   -2.250734
H     -3.257932    1.471957    1.217099
H     -2.452605   -0.043744    1.644450
H      2.151650   -3.599137    1.288083
H      1.725400   -2.055112   -0.977824
H     -4.678869   -0.197295   -1.919040
H     -5.279349    1.905505   -0.343356
H     -4.880864    2.174773   -2.020455
H      7.752786    1.107179    0.031032
