20

C     -1.513828   -1.319567    0.191835
C      0.495273    0.155335    0.552339
C      1.143967   -0.136451   -0.776768
C     -0.989444    0.045526    0.568504
C      2.607948    0.018182   -0.632414
C     -1.700282    1.122092   -0.124119
O      3.237957    0.958841   -1.172696
O      3.304091   -0.903537    0.128581
O     -1.127159    1.941072   -0.921519
O     -3.059809    1.320393    0.047275
H     -2.631561   -1.231854    0.168513
H     -1.253032   -2.068344    0.936542
H     -1.235556   -1.604001   -0.846347
H      0.887770   -0.543926    1.331126
H      0.772380    1.179798    0.900646
H      0.737343    0.510557   -1.582611
H      0.957157   -1.189835   -1.098794
H     -1.270240    0.146022    1.662852
H      4.123821   -0.627619    0.693445
H     -3.486796    2.227316   -0.026390
