40

C     -1.207478   -2.917740   -0.721119
C     -3.789069    0.312925   -0.403819
C     -2.671401    0.485474    1.730803
C     -1.969248   -1.861731    0.062576
C      1.769703   -0.140317    1.587112
C      0.437208   -0.325546    1.304024
C      3.132056    0.422201   -1.725406
C      4.461655    0.604438   -1.417795
C      0.866594   -0.016799   -1.008748
C      4.001008    0.291756    0.884479
C      2.203375    0.169441   -0.729060
C      2.679158    0.112068    0.564333
C     -0.062909   -0.271875    0.009191
C      4.908312    0.541920   -0.120034
C     -1.481441   -0.468810   -0.284084
C     -2.017893    1.924099   -0.181014
C     -2.416403    0.563246    0.245186
O      6.251100    0.723967    0.209923
O     -0.956167    2.047369   -0.835104
O     -2.734788    3.076376    0.090802
H     -1.219968   -2.637033   -1.784993
H     -0.227054   -3.143096   -0.306518
H     -1.816289   -3.856142   -0.637024
H     -4.370048   -0.427314    0.168675
H     -4.332457    1.279249   -0.334490
H     -3.685017    0.042481   -1.466710
H     -3.695216    0.898658    1.975292
H     -1.969463    1.161413    2.258597
H     -2.668115   -0.529902    2.122665
H     -3.033837   -1.960684   -0.231403
H     -1.879843   -2.116034    1.115477
H      2.077558   -0.198122    2.623775
H     -0.277767   -0.523395    2.088700
H      2.784994    0.473332   -2.758499
H      5.204214    0.805653   -2.205847
H      0.565326    0.041716   -2.042046
H      4.326947    0.236321    1.926341
H     -1.592278   -0.414613   -1.411578
H      6.569585    1.677451    0.415727
H     -2.164645    3.917598    0.265447
