82

C      2.926314   -2.137329   -2.696089
C     -2.343785    1.829761   -1.894077
C      0.379212   -4.861200    2.134395
C     -6.998378   -3.048555   -1.249888
C     -0.409517    2.110817    2.769273
C     -1.180799    3.690586    1.190960
C      5.180166    1.987268   -0.402120
C      0.905618    2.703116    2.676729
C      0.117256    4.277166    1.094580
C      5.621237    2.792071    0.632938
C      4.222349   -2.616421    0.054816
C     -5.168592    1.414939   -0.131658
C      4.846293   -2.462599   -1.276180
C     -4.246615    2.466088   -0.589513
C     -2.736665    1.782110    1.783231
C      3.688066    0.774914   -1.818455
C      2.880973    2.634025   -0.184611
C      1.944847   -3.128633    0.775740
C     -5.393655   -0.976906   -0.543001
C      0.942980   -0.863185   -0.522268
C     -1.434255    2.609464    2.011318
C      3.860408    1.880220   -0.826857
C      2.752055   -2.278662    0.110827
C     -4.555210    0.053728   -0.182764
C      1.098411    3.728403    1.848131
C      2.294973   -1.090286   -0.576999
C      3.513318   -0.516606   -1.097012
C     -2.507839    1.122239    0.404565
C      4.612484    3.519663    1.255205
C      3.308111    3.417960    0.840590
C      0.609077   -2.845054    0.795064
C      0.032325   -1.699220    0.145366
C     -4.831496   -2.211864   -0.609573
C     -3.196973   -0.121909    0.106556
C     -3.511865   -2.394493   -0.330694
C     -2.583809   -1.396508    0.046565
N      4.057534   -1.510690   -2.015159
N     -2.842245    2.164804   -0.577817
O      5.059498    4.331698    2.305693
O     -3.133962   -3.748320   -0.460372
O     -0.201132   -3.758016    1.508651
O     -5.657266   -3.281192   -0.973759
O      2.452349    4.262700    1.694093
O     -1.306959   -1.656725    0.307138
H      3.264430   -2.320498   -3.739310
H      2.727988   -3.129034   -2.246892
H      2.050343   -1.488504   -2.743851
H     -2.987716    1.074391   -2.399425
H     -1.300397    1.472517   -1.779358
H     -2.330009    2.770192   -2.480395
H      1.167124   -4.568007    2.871936
H      0.901054   -5.543850    1.421384
H     -0.343075   -5.482068    2.677318
H     -7.457107   -3.979425   -1.676472
H     -7.149754   -2.274444   -2.052935
H     -7.586071   -2.713221   -0.383587
H     -0.322125    1.299594    3.529799
H     -1.821678    4.340146    0.534527
H      6.002147    1.407944   -0.885394
H      1.601561    2.185008    3.409985
H      0.166130    5.159725    0.393265
H      6.644513    2.853758    0.932380
H      4.813799   -2.097582    0.813433
H      4.316148   -3.720992    0.311849
H     -5.640793    1.523800    0.851913
H     -6.065331    1.422367   -0.835708
H      4.850436   -3.408763   -1.873139
H      5.880806   -2.097500   -1.264883
H     -4.383167    3.450863   -0.047656
H     -4.480108    2.728791   -1.655538
H     -3.646895    2.339904    1.734217
H     -2.953881    1.035271    2.537955
H      3.025058    0.818828   -2.645977
H      4.707809    0.685041   -2.341022
H      1.813959    2.610263   -0.590182
H      2.338366   -4.031239    1.293325
H     -6.452475   -0.787047   -0.759216
H      0.479712    0.047091   -1.033619
H      4.305971   -0.479424   -0.214250
H     -1.393113    1.036135    0.300288
H      4.369377    4.878742    2.788252
H     -2.177872   -3.968140   -0.286575
