24

C     -2.315470    0.951173    0.392550
C     -3.066111   -1.400916    0.009675
C      2.538336    0.609253    0.263759
C     -1.907648   -0.486207    0.336807
C      3.833467   -0.015648   -0.025945
C     -0.845238   -0.649067   -0.728196
C      0.302524    0.214698   -0.336596
Br    -0.311346   -2.504506   -0.857335
N      1.469523   -0.259470   -0.109013
O      3.868481   -1.163024   -0.533273
O      5.056521    0.589161    0.228457
O      0.066042    1.565483   -0.224451
H     -3.405237    0.970814    0.635718
H     -1.804648    1.543662    1.169527
H     -2.232291    1.431270   -0.603700
H     -3.637688   -1.589795    0.948633
H     -2.709105   -2.378441   -0.372486
H     -3.689226   -0.918168   -0.749019
H      2.480005    1.597563   -0.241464
H      2.451980    0.813738    1.351700
H     -1.461885   -0.827578    1.296374
H     -1.248691   -0.351062   -1.712065
H      5.946297    0.110798    0.179851
H      0.621407    2.146269    0.395690
