112

C     -9.077760   -2.121857    0.892365
C     -1.294788    3.865710   -1.668955
C     -1.803205    1.530367   -2.083291
C      4.299151    1.149206   -1.565441
C      7.136604    1.198584    0.883407
C      0.777364   -1.558316   -2.282972
C     -5.830333    4.257778   -0.210612
C     -7.317335   -1.137377    2.389653
C      6.796033   -3.017385    0.060403
C     -8.484330   -1.300338   -0.161144
C     11.660451    1.479255    1.146186
C     10.850269    2.141251    0.259709
C     11.512801    0.105316    1.291079
C      9.907483    1.442803   -0.470471
C     10.567150   -0.566844    0.552007
C      2.885114   -0.345684    0.014495
C      1.708385   -0.071177   -0.516327
C     -3.148979   -2.283749   -0.109251
C     -4.599025   -2.549320    0.168916
C      5.243091   -0.199722    0.228693
C      8.761610   -0.618942   -1.117285
C     -1.015319    2.420679   -1.209651
C      4.147813    0.211695   -0.449028
C      6.589420    0.310631   -0.176786
C     -0.121254   -1.656479   -1.032771
C     -4.863038    3.095229   -0.237432
C      9.748356    0.079103   -0.339052
C      0.431252   -0.673386   -0.002275
C     -2.233946   -2.983937    0.810678
C     -7.241485   -0.842358   -0.031154
C      7.413791   -0.862812   -0.563596
C     -5.162995   -1.620176    1.175998
C     -1.418332    2.407100    0.246522
C     -5.543902    1.777782    0.165419
C     -0.175926   -3.048370   -0.548851
C     -3.740528    3.302883    0.762768
C     -6.637233   -0.009905   -1.097839
C     -1.209288    1.050540    0.900597
C     -2.900878   -4.136829    1.462507
C     -6.666097    2.141119    1.067817
N     -0.476247    0.164142    0.575729
N     -1.053736   -3.498854    0.184151
N     -2.662020    2.885935    0.521221
N     -5.962304    1.034744   -0.967921
N     -6.557379   -1.204907    1.166384
O     -4.440518   -1.155522    2.083534
O      0.888054   -3.876669   -0.995340
O     -4.172860    3.999322    1.890254
O     -6.885813   -0.499072   -2.404180
O     -2.047245    0.926325    2.045609
O     -3.772220   -4.083610    2.344072
O     -2.535256   -5.448994    1.067427
O     -7.853234    1.841265    0.759574
O     -6.466714    2.808823    2.260403
O      7.422550   -1.854262    0.444267
H     -9.605997   -1.676149    1.706083
H     -9.960921   -2.609572    0.344741
H     -8.512957   -3.072483    1.077194
H     -1.289710    4.568114   -0.821350
H     -0.525143    4.207426   -2.373975
H     -2.279862    3.945725   -2.168388
H     -2.372333    0.764867   -1.481633
H     -1.180685    0.965203   -2.802525
H     -2.535793    2.091182   -2.734040
H      3.318337    1.385488   -1.994769
H      4.893416    0.722687   -2.416881
H      4.737620    2.123996   -1.263710
H      6.310288    1.348603    1.651298
H      7.943831    0.730615    1.484483
H      7.343100    2.211008    0.524432
H      1.822306   -1.791213   -1.993353
H      0.650402   -0.545615   -2.678626
H      0.408449   -2.278830   -3.029804
H     -6.016529    4.642106    0.806177
H     -5.377205    5.059203   -0.831488
H     -6.746971    3.925148   -0.734374
H     -6.501808   -0.770827    3.111447
H     -7.986930   -0.261615    2.495528
H     -7.583185   -2.051458    2.896422
H      6.844998   -3.737896    0.911175
H      7.343396   -3.494912   -0.802225
H      5.750733   -2.820583   -0.182414
H     -9.003934   -1.025381   -1.092473
H     12.389393    2.017163    1.710531
H     10.975123    3.208762    0.157338
H     12.171546   -0.375606    1.999286
H      9.302029    2.025135   -1.148787
H     10.469676   -1.622047    0.679499
H      2.877151   -1.049745    0.866595
H      1.665694    0.599509   -1.347418
H     -3.030907   -1.175502   -0.027545
H     -2.977601   -2.629047   -1.157769
H     -5.201058   -2.436778   -0.794809
H     -4.837423   -3.582145    0.480855
H      5.175234   -0.874915    1.047537
H      8.614428   -0.087371   -2.101671
H      9.153380   -1.628779   -1.448130
H      0.046871    2.285233   -1.302434
H      6.399796    0.984707   -1.070093
H     -1.075030   -1.233622   -1.364502
H     -4.477430    3.043398   -1.264444
H      0.798520   -1.384604    0.816269
H     -1.906587   -2.295742    1.635346
H      6.838955   -1.360386   -1.410954
H     -0.556526    3.002896    0.719081
H     -4.823197    1.181888    0.747458
H      1.197957   -4.671885   -0.430214
H     -3.772344    3.943816    2.792755
H     -6.637741    0.000328   -3.220616
H     -1.808364    0.410809    2.879231
H     -2.984049   -6.253925    1.466775
H     -7.249625    3.002886    2.903655
