35

C      3.168397    0.717678   -1.497697
C      2.149050    0.900600   -0.561470
C      3.610263   -0.521133   -1.811361
C     -1.735432   -0.969869    0.204755
C      0.605417    1.538339    1.442885
C      1.533921   -0.173621    0.098302
C     -0.954912    0.183190    0.599507
C      0.474342    0.089224    0.970804
C     -3.186207   -0.770065   -0.054229
C      2.048096   -1.402158   -0.279901
C     -0.828081    1.345786   -0.386633
C      1.551224   -2.566400    0.370502
C     -2.031031    1.931287   -0.920175
N      3.031093   -1.560723   -1.185701
N     -0.217629    2.272915    0.543346
O     -3.857371    0.227208    0.280021
O     -3.888586   -1.768980   -0.728645
O      0.713252   -2.662289    1.285386
O      2.036566   -3.837946   -0.030566
O     -2.559071    2.945956   -0.423322
O     -2.682799    1.387561   -2.054869
H      3.621818    1.568337   -1.989323
H      1.893970    1.935561   -0.414581
H      4.403589   -0.700607   -2.535449
H     -1.799116   -1.770868    1.025745
H     -1.274741   -1.602107   -0.619856
H      1.649658    1.892599    1.466951
H      0.175692    1.581212    2.498232
H     -1.442492    0.660636    1.458075
H      0.551425   -0.533311    1.909530
H     -0.182701    1.087447   -1.240907
H      0.061972    3.164350    0.234529
H     -4.894391   -1.872572   -0.571658
H      1.526763   -4.691620    0.184872
H     -3.271947    1.974383   -2.641993
