55

C      4.510064   -0.460923    1.736293
C     -3.225491    0.935266    1.880145
C     -3.199984    1.714002   -0.416885
C      2.784102   -2.051417   -0.447870
C      1.323513   -1.991612   -0.754641
C     -2.939945   -1.583936   -0.872357
C     -3.573526   -0.656319    0.093368
C      3.539196   -0.184818    0.877091
C      3.487131   -0.729380   -0.508717
C      0.706558   -0.843663   -0.036186
C     -1.475349   -1.808300   -0.647960
C     -1.307950    0.350883    0.510575
C      2.360556    0.675821    1.092339
C      2.532729    0.251447   -1.206135
C     -0.582798    1.680367    0.473734
C     -0.552172    0.168708   -1.840926
C     -2.769430    0.535294    0.465373
C     -0.714203   -0.533626   -0.534713
C      1.494797    0.420515   -0.106830
C      0.651243    1.621004   -0.421379
O     -1.016315   -2.630476   -1.672282
O      1.730323    0.462700    2.295115
O      3.175270    1.447394   -1.492599
O     -0.267845    2.125607    1.754454
O     -0.958441   -0.245403   -2.930884
O      1.345404    2.793676   -0.318164
O      0.130906    1.401123   -1.745986
H      4.481175   -0.027349    2.729517
H      5.347000   -1.105379    1.503607
H     -3.063671    0.009510    2.495647
H     -4.316333    1.103826    1.814814
H     -2.658027    1.791718    2.252839
H     -3.249619    2.658410    0.181309
H     -4.244999    1.514721   -0.734117
H     -2.597405    1.796700   -1.322707
H      2.977309   -2.568367    0.523470
H      3.258999   -2.713186   -1.222689
H      1.213136   -1.957778   -1.859149
H      0.868167   -2.932324   -0.324926
H     -3.172250   -1.267496   -1.912219
H     -3.442932   -2.590374   -0.763553
H     -3.862896   -1.242846    1.012525
H     -4.558851   -0.328029   -0.340102
H      4.463777   -0.763564   -0.996026
H      0.586627   -1.129309    1.030527
H     -1.361910   -2.366702    0.297164
H     -1.045657   -0.104791    1.510693
H      2.706717    1.746110    1.015137
H      2.123986   -0.152983   -2.130325
H     -1.224208    2.481330    0.021485
H     -1.540810   -2.531119   -2.505334
H      1.833542   -0.485970    2.561890
H      2.885613    1.842313   -2.363864
H     -0.581042    3.045659    1.936601
H      0.986218    3.413333    0.363814
