35

C      2.354180   -2.311060   -0.940331
C      1.493997   -1.671447   -0.099512
C      3.233249   -1.537545   -1.722581
C     -1.221680   -0.728055   -1.171587
C     -0.306772   -0.155389    1.791023
C      1.483982   -0.307907   -0.005811
C     -0.803772    0.473865   -0.412371
C      0.329535    0.393789    0.594747
C     -1.889312   -1.858369   -0.541977
C      2.351698    0.436119   -0.772206
C     -1.937244    0.835868    0.541026
C      2.711390    1.856565   -0.476141
C     -2.886244    1.830629    0.154413
N      3.208197   -0.217832   -1.620141
N     -1.521321    0.710549    1.892197
O     -3.219647   -1.916342   -0.572908
O     -1.421137   -2.963477    0.139691
O      3.218689    2.667096   -1.232000
O      2.452189    2.295858    0.868924
O     -4.020485    1.610657   -0.289226
O     -2.568303    3.251286    0.255234
H      2.327512   -3.392876   -1.004538
H      0.873753   -2.299452    0.521703
H      3.909770   -2.103111   -2.358558
H     -0.393416   -1.112928   -1.842546
H     -1.963590   -0.344951   -1.966945
H     -0.514676   -1.207070    1.869936
H      0.376966    0.118063    2.688514
H     -0.607408    1.329264   -1.081324
H      0.553244    1.476870    0.827964
H     -2.629567   -0.168180    0.502363
H     -1.091090    1.632187    2.271813
H     -1.785899   -3.108989    1.106614
H      3.278448    2.751018    1.385319
H     -3.375236    3.735298    0.699224
