30

C      3.254772   -0.293974    1.256778
C      3.366436    0.049882   -0.210054
C      1.943903    0.115971   -0.806941
C     -2.203029   -2.045415   -0.521827
C     -3.425736   -1.359001   -0.148089
C     -0.991885   -1.219596   -0.617015
C     -3.454555   -0.065547    0.047929
C      1.183262    1.163051   -0.084379
C     -1.130795    0.238754   -0.404026
C     -2.297528    0.807153   -0.076687
C     -0.189456    1.376623   -0.555534
C     -2.131123    2.250569    0.150625
O     -3.080091    3.024213    0.468230
O     -0.813885    2.505008   -0.052210
H      3.009386    0.639418    1.830737
H      4.223540   -0.708335    1.617839
H      2.419329   -1.002492    1.383566
H      3.849943    1.025536   -0.346712
H      3.891210   -0.731542   -0.765717
H      1.578084   -0.887369   -0.746371
H      2.131975    0.395967   -1.891152
H     -2.031467   -2.811099    0.322430
H     -2.353062   -2.676560   -1.460527
H     -4.383811   -1.891717   -0.012019
H     -0.498148   -1.354654   -1.621435
H     -0.244449   -1.607094    0.175790
H     -4.406919    0.429495    0.328229
H      1.729180    2.142156   -0.180855
H      1.158647    0.898695    1.010527
H     -0.103727    1.591906   -1.698414
