46

C     -4.481223   -1.507750   -0.206477
C     -2.137783    2.266372   -0.820990
C      1.321881   -1.705244    2.062045
C     -3.216545   -1.062659    0.528259
C     -0.871552    2.030722   -0.084797
C      3.746259    2.070107   -0.356729
C      3.006117    1.417023   -1.316550
C      3.726989    1.634671    0.968836
C      1.450830   -0.342367   -2.035459
C      0.414964   -1.316971   -1.596553
C     -2.109255   -0.793382   -0.474359
C     -0.789243    0.810787    0.779102
C      1.397595   -1.285389    0.627606
C      2.225670    0.306740   -0.971975
C      0.126767   -1.290491   -0.106718
C      2.960172    0.540953    1.318609
C      2.228270   -0.100211    0.348655
N     -0.893036   -0.381105    0.130870
O      2.967905    0.143380    2.648706
H     -4.223188   -1.949618   -1.206692
H     -5.026541   -2.298047    0.351221
H     -5.176185   -0.668022   -0.400794
H     -3.048007    1.843026   -0.387292
H     -2.319945    3.394997   -0.868229
H     -2.114567    1.997989   -1.907557
H      0.670457   -2.630471    2.146965
H      0.928906   -0.951617    2.761742
H      2.289259   -2.052639    2.479598
H     -3.447739   -0.114838    1.028070
H     -2.979001   -1.844635    1.245351
H     -0.688294    2.906613    0.597866
H     -0.057698    2.019290   -0.878318
H      4.352177    2.932313   -0.624281
H      3.026344    1.758400   -2.329856
H      4.331113    2.196462    1.658489
H      1.033079    0.475144   -2.681708
H      2.165143   -0.879525   -2.695617
H     -0.532530   -1.050774   -2.141500
H      0.648614   -2.366420   -1.939483
H     -2.469437   -0.205359   -1.314881
H     -1.952969   -1.840955   -0.939266
H     -1.697410    0.907491    1.476895
H      0.043424    0.905038    1.529079
H      2.005000   -2.127083    0.138082
H     -0.324308   -2.333710    0.076905
H      3.489519    0.541766    3.383131
