50

C     -2.508458   -4.203802   -0.765195
C     -6.594578    3.033334   -0.340489
C      8.074917   -1.200233   -0.709235
C     -6.470888    1.704049   -0.674457
C     -5.476524    3.761825   -0.035526
C      7.575603   -0.110237   -1.377013
C      7.369891   -1.668081    0.390410
C     -5.225277    1.097559   -0.704408
C     -4.258905    3.134502   -0.073698
C      6.417174    0.488178   -0.961635
C      6.194811   -1.061935    0.812731
C     -2.795294    1.131430   -0.433641
C      1.017742   -0.437744   -0.645277
C      4.452314    0.680677    0.576652
C     -3.210543   -0.463996    1.376448
C     -2.233985   -3.007148    0.081836
C     -4.084173    1.801390   -0.403193
C      5.717047    0.019112    0.134886
C     -2.285506    0.568185    0.848494
C      2.056704    0.325197    0.076172
C     -0.896168    0.067791    0.744743
N     -0.309043    0.016204   -0.383502
O     -1.107276   -2.897006    0.510284
O      1.735297    1.270183    0.832527
O     -0.264379   -0.338761    1.911365
O      3.390867    0.012450   -0.069057
S     -3.533234   -1.883162    0.382174
H     -3.221922   -3.862623   -1.564496
H     -1.598403   -4.503646   -1.286230
H     -2.961762   -5.017749   -0.154894
H     -7.565077    3.541817   -0.307863
H      8.987676   -1.704693   -1.002807
H     -7.380009    1.166406   -0.908099
H     -5.541937    4.814817    0.232372
H      8.104435    0.265492   -2.226978
H      7.777265   -2.531011    0.908036
H     -5.239637    0.047924   -0.989249
H     -3.379822    3.702614    0.164632
H      6.029962    1.349216   -1.495435
H      5.666275   -1.455992    1.680943
H     -2.859112    0.281902   -1.158944
H     -2.043574    1.822863   -0.876847
H      1.189642   -0.349869   -1.753863
H      1.166422   -1.533316   -0.431151
H      4.367409    0.639839    1.689550
H      4.506890    1.727581    0.262402
H     -2.880885   -0.708646    2.429218
H     -4.202720    0.055644    1.551538
H     -2.210789    1.368454    1.650082
H      0.541536   -0.956989    1.908393
