33

C     -4.867573    1.199168   -0.451356
C     -2.381092    1.193990   -0.371047
C     -3.552713   -0.795692    0.165483
C      0.026146    1.247535   -0.308695
C      2.477518    1.481320   -0.299796
C      3.778217   -0.676540   -0.153236
C     -3.559126    0.515937   -0.212899
C     -1.154062    0.555615   -0.148133
C      1.269930    0.652468   -0.095891
C      3.737612    0.812113    0.117472
C     -2.321158   -1.451561    0.393610
C      2.597259   -1.272620    0.520695
C     -1.131889   -0.769823    0.234620
C      1.283639   -0.657130    0.282407
C      0.119767   -1.370494    0.448845
O      4.832190    1.393297   -0.521645
O     -2.353564   -2.737364    0.763762
O      2.704580   -2.269532    1.272590
O      0.172222   -2.670346    0.823001
H     -4.742591    2.283565   -0.225173
H     -5.646214    0.811330    0.219132
H     -5.161141    1.072375   -1.499441
H     -2.390366    2.216486   -0.666116
H     -4.475326   -1.355330    0.297613
H     -0.037331    2.274813   -0.607137
H      2.524270    1.889440   -1.331135
H      2.347944    2.386874    0.359344
H      4.675377   -1.088279    0.320965
H      3.795628   -0.889034   -1.237662
H      3.852262    0.935564    1.216935
H      4.535440    1.861183   -1.321301
H     -1.777967   -3.442985    0.985772
H      0.822113   -3.336342    1.028418
