35

C     -1.664646    2.264730    1.437343
C      4.043945    0.150264   -0.676562
C     -1.104715   -2.640632    1.042711
C     -1.139617    2.052495    0.242907
C      1.150156    0.322953   -1.635678
C     -0.250664    0.813690   -1.641786
C     -2.481838    0.428980   -0.853942
C      2.964173   -0.179398    0.000322
C     -1.498426   -1.399021    0.873298
C      1.611890    0.308186   -0.214424
C     -0.570956   -0.267036    0.627223
C      0.787291   -0.841245    0.396052
C     -2.934262   -1.056499    0.931513
C      2.871579   -1.107852    1.120548
C     -1.037158    0.704485   -0.383596
O     -3.717098   -1.799556    1.561895
O      3.842652   -1.760745    1.620527
O     -3.299982    0.098133    0.259069
O      1.519944   -1.137511    1.530991
H     -2.064799    1.465416    2.058238
H     -1.728344    3.255312    1.872826
H      5.032478   -0.272694   -0.441078
H      4.043523    0.847105   -1.498654
H     -1.841845   -3.406644    1.216673
H     -0.077505   -2.911048    1.016016
H     -0.765936    2.900478   -0.308224
H      1.800472    0.923880   -2.301160
H      1.157143   -0.723370   -2.061660
H     -0.200649    1.900358   -1.965084
H     -0.761400    0.336844   -2.533036
H     -2.407695   -0.386323   -1.584859
H     -2.878479    1.314779   -1.348950
H      1.349061    1.222545    0.320966
H     -0.495991    0.237438    1.640243
H      0.747696   -1.658497   -0.320670
