39

C     -3.011409   -1.575745   -0.829109
C      3.716192   -1.705172    0.119559
C      2.831996   -2.483185    0.851145
C      0.650219    4.094762   -0.538671
C      3.274380   -0.687530   -0.667743
C      1.261767    3.041283   -1.160757
C      1.483187   -2.192028    0.755618
C     -0.368852    3.833168    0.349029
C     -2.955230   -0.434554    1.217696
C     -1.772576    0.468362    1.440173
C      1.646098    0.747713   -1.671623
C     -1.211911   -2.015193    0.711577
C      1.921779   -0.415463   -0.747213
C      0.871021    1.758423   -0.907698
C      1.011595   -1.166404   -0.035039
C     -0.433438   -0.983172   -0.032432
C     -0.162800    1.547676   -0.003132
N     -0.764637    2.577747    0.608591
N     -2.627830   -1.664073    0.545004
N     -0.758350    0.331895    0.436611
H     -4.132911   -1.693931   -0.870869
H     -2.819528   -0.569809   -1.283925
H     -2.598419   -2.400050   -1.456082
H      4.774054   -1.933725    0.194647
H      3.223514   -3.278019    1.461141
H      0.970669    5.129369   -0.747493
H      3.949136   -0.050819   -1.261280
H      2.077500    3.209207   -1.874382
H      0.774327   -2.799088    1.327987
H     -0.860978    4.655401    0.847754
H     -3.432241   -0.702617    2.185038
H     -3.718257    0.153091    0.645164
H     -2.113146    1.525227    1.475103
H     -1.382598    0.240330    2.462038
H      2.592996    1.118052   -2.045332
H      0.964391    0.348537   -2.448906
H     -1.054933   -2.997913    0.253269
H     -1.037174   -2.001353    1.801576
H     -0.777603   -1.030399   -1.107034
