85

C      2.475947    4.835695   -0.826965
C     -5.009240    0.219705    1.473675
C      5.482987   -3.919436   -2.085622
C     -1.721396    2.272427    3.490980
C     -4.561942   -0.682023   -5.113421
C     -0.516307   -2.518676    2.302364
C     -0.768119   -3.206672    0.038233
C      5.262777   -0.024894   -0.968759
C      0.893237   -2.540897    2.118795
C      0.652162   -3.209342   -0.080282
C      5.352018   -1.333396   -1.361469
C      2.755265    3.689289    2.114051
C     -5.303556   -2.249742   -0.450227
C      3.678678    4.410684    1.229591
C     -5.425301   -2.110095    1.026356
C     -2.849042   -2.757017    1.381368
C      4.505874    1.930640    0.204276
C      3.596184   -0.444859    0.693133
C      0.573765    2.618490    2.086873
C     -4.335308   -1.183167   -2.409327
C      1.075275    1.419298   -0.401564
C     -1.332580   -2.853798    1.243538
C      4.405008    0.452959    0.044440
C      1.769179    2.826930    1.395296
C     -4.192709   -1.415966   -1.045694
C      1.478590   -2.879446    0.937722
C      2.011305    2.229893    0.157181
C      3.332208    2.691232   -0.392772
C     -3.169902   -1.292854    1.111027
C      4.518525   -2.196656   -0.683767
C     -0.337843    1.798280    1.479390
C      3.661105   -1.758724    0.317717
C     -0.153951    1.177725    0.257258
C     -3.394067   -0.413030   -3.035003
C     -3.158169   -0.911347   -0.312422
C     -2.337433    0.102191   -2.275230
C     -2.152204   -0.100670   -0.917941
N      3.521511    4.142493   -0.151185
N     -4.530498   -1.124258    1.613537
O     -1.479943    0.864651   -3.098162
O      4.607225   -3.548901   -1.082188
O     -1.527796    1.644220    2.251089
O     -3.480440   -0.142669   -4.399459
O      2.916293   -2.856574    0.830262
O     -1.152922    0.397394   -0.219077
H      1.689253    4.130646   -1.186804
H      2.824002    5.381832   -1.736360
H      1.966124    5.613327   -0.205240
H     -5.267098    0.503745    0.433441
H     -5.874557    0.342594    2.157306
H     -4.222542    0.902487    1.845283
H      5.326699   -3.357979   -3.039822
H      5.375212   -4.992146   -2.377405
H      6.561924   -3.774786   -1.848106
H     -1.672068    3.382972    3.342971
H     -2.681215    1.946978    3.902778
H     -0.892468    2.039646    4.215669
H     -5.540048   -0.475398   -4.652426
H     -4.464894   -1.791989   -5.184087
H     -4.595770   -0.214899   -6.135295
H     -0.739269   -2.207093    3.367748
H     -1.213184   -3.515462   -0.952704
H      5.929045    0.678113   -1.513016
H      1.393078   -2.253185    3.089472
H      0.927473   -3.537978   -1.126235
H      6.023563   -1.663942   -2.143882
H      2.165896    4.383614    2.784881
H      3.322832    3.004841    2.798733
H     -5.283713   -3.294112   -0.835778
H     -6.282938   -1.862877   -0.878938
H      4.758756    4.312730    1.531574
H      3.488165    5.518578    1.363044
H     -5.310172   -3.106095    1.550737
H     -6.460310   -1.787200    1.354413
H     -3.284138   -3.140844    2.324329
H     -3.469082   -3.324681    0.681448
H      4.825191    2.305880    1.192673
H      5.370612    2.334852   -0.431489
H      2.908686   -0.123556    1.559510
H      0.407110    3.093476    3.050192
H     -5.161737   -1.589730   -2.981509
H      1.224469    0.849806   -1.396754
H      3.480620    2.669017   -1.482061
H     -2.504758   -0.732741    1.767172
H     -0.683200    1.302466   -2.693078
