32

C     -2.725169   -1.003682    0.950058
C     -2.477994    1.342712    0.347195
C      3.513273   -0.383450    0.313390
C      1.266166   -1.268565    0.712148
C      0.027228   -1.476973   -0.108898
C      1.521449    0.470820   -0.955789
C     -1.718024    0.065897    0.692621
C      2.040734   -0.049468    0.368563
C     -0.745372   -0.256907   -0.409704
C      0.099328    0.957516   -0.675952
C     -0.328338    1.725599   -1.839116
Cl     0.554255    3.148349   -2.328657
O     -1.297362    1.390224   -2.480317
H     -2.398923   -1.785649    1.653843
H     -3.042780   -1.535487    0.020893
H     -3.662869   -0.570267    1.376469
H     -3.101371    1.645389    1.226452
H     -1.801680    2.179016    0.104626
H     -3.163922    1.071658   -0.486998
H      3.712828   -1.371041   -0.118750
H      3.908876   -0.367103    1.369734
H      4.060116    0.404598   -0.277788
H      1.927233   -2.163615    0.670322
H      0.943053   -1.195192    1.775041
H     -0.629625   -2.171829    0.475418
H      0.360337   -1.937354   -1.062801
H      2.174403    1.312558   -1.284915
H      1.484944   -0.356698   -1.685165
H     -1.146780    0.275320    1.622084
H      1.859951    0.745004    1.110684
H     -1.357754   -0.427339   -1.335723
H      0.143790    1.585960    0.261032
