32

C     -3.006599    0.807575   -0.524413
C     -2.318172    0.024105    1.677567
C      3.355704   -0.014422   -0.536181
C      1.256411    1.268071   -0.646170
C     -0.133815    1.321782    0.006615
C      1.448552   -0.706252    0.903073
C     -2.132149   -0.180793    0.215473
C      2.115304    0.430661    0.238333
C     -0.699580   -0.068188   -0.240174
C      0.153365   -1.156697    0.316490
C      0.320895   -2.245778   -0.687165
Cl     1.289335   -2.004981   -2.147301
O     -0.187091   -3.348902   -0.570093
H     -2.863697    1.806514   -0.053913
H     -4.076466    0.508889   -0.343543
H     -2.777711    0.832777   -1.603869
H     -2.916528   -0.812012    2.108323
H     -1.401847    0.119412    2.262143
H     -2.927602    0.947205    1.890876
H      4.264666    0.498227   -0.219802
H      3.235159    0.218492   -1.633133
H      3.546844   -1.112357   -0.386052
H      1.210022    0.958795   -1.690742
H      1.610584    2.336571   -0.632235
H     -0.773147    2.054412   -0.490750
H      0.049323    1.520218    1.076855
H      1.336868   -0.536365    2.015238
H      2.151546   -1.591652    0.850372
H     -2.482671   -1.191076   -0.071762
H      2.507954    1.122495    1.042694
H     -0.717933   -0.183237   -1.356353
H     -0.437523   -1.623489    1.161763
