42

C      2.857716   -0.925427   -0.909314
C      2.412208   -2.049423    1.213041
C      1.221996    3.625388    0.974901
C     -3.390756   -0.707415   -0.210990
C     -0.676269    1.972746    1.364300
C     -1.740476    1.266492    0.597078
C      0.118931   -1.998708   -0.658472
C     -1.381334   -1.988155   -0.533111
C      0.933524    1.630743   -0.370947
C      2.102566   -0.852271    0.374251
C      0.504664    2.382905    0.623284
C      0.619652   -0.787072    0.100688
C      0.217366    0.389672   -0.722711
C     -1.281465    0.548857   -0.638921
C     -2.033846   -0.697484   -0.901964
O     -2.353638   -0.790787   -2.282412
H      2.427763   -0.312422   -1.699904
H      2.929222   -1.981048   -1.233252
H      3.911215   -0.603499   -0.693241
H      2.990417   -1.783862    2.123514
H      1.492446   -2.574076    1.579959
H      3.028049   -2.806744    0.659603
H      2.049668    3.358060    1.688981
H      0.559231    4.358910    1.475229
H      1.671975    4.069183    0.055252
H     -3.994296   -1.502944   -0.740908
H     -3.306611   -1.096215    0.837706
H     -3.925103    0.231412   -0.294428
H     -1.105272    2.877489    1.886218
H     -0.325065    1.328051    2.223127
H     -2.253580    0.580412    1.322234
H     -2.537446    2.036979    0.366691
H      0.483939   -2.942276   -0.243301
H      0.390430   -1.895487   -1.735546
H     -1.748754   -2.816122   -1.185282
H     -1.602646   -2.320723    0.504879
H      1.819898    1.939755   -0.923459
H      2.377339    0.078450    0.895835
H      0.048472   -0.788038    1.073180
H      0.451252    0.182434   -1.788714
H     -1.517481    1.268451   -1.484471
H     -2.445900    0.093814   -2.688604
