67

C     -0.426813    4.149901   -0.132636
C      0.433179    3.568468   -2.333483
C     -4.113304   -4.438727    1.504194
C     -6.246901    2.161665   -1.282061
C      3.352010   -4.464087    1.666462
C      6.727340    1.644867   -0.945244
C     -3.225324   -3.600149    2.170150
C     -4.542927   -4.097401    0.232174
C     -5.880016    1.182759   -2.182771
C     -5.508531    2.321093   -0.130472
C      3.138312   -3.402503    2.517120
C      3.358799   -4.276525    0.299293
C      6.096755    1.866280    0.251766
C      6.126762    0.839844   -1.880970
C     -2.767247   -2.422273    1.566079
C     -4.076799   -2.919145   -0.356669
C     -4.791449    0.359880   -1.957614
C     -4.409332    1.481390    0.084628
C      2.933080   -2.153657    1.944912
C      3.153292   -3.029739   -0.250945
C      4.876550    1.301829    0.539215
C      4.895617    0.274236   -1.582962
C     -1.402418    0.289860    0.554451
C      1.677254    0.675196    1.175653
C     -3.197913   -2.089777    0.303213
C     -4.059342    0.516890   -0.817282
C      2.938377   -1.959787    0.590250
C      4.264854    0.495684   -0.385690
C     -0.328630    0.912529   -0.307676
C      0.689355    1.623787    0.565820
C      0.099195    2.997161   -0.974295
O     -0.798371    1.961727   -1.080528
O      1.234083    2.513565   -0.323533
P     -2.624148   -0.565044   -0.516539
P      2.656857   -0.270610   -0.052901
H      0.404373    4.705673    0.363368
H     -1.162321    3.800590    0.626767
H     -1.009717    4.854428   -0.793390
H      0.876366    2.784062   -2.963977
H      1.018864    4.486085   -2.270398
H     -0.556204    3.820441   -2.809036
H     -4.481107   -5.361313    1.959773
H     -7.104238    2.787770   -1.489931
H      3.516670   -5.462028    2.100490
H      7.707523    2.105055   -1.162381
H     -2.908282   -3.890924    3.158302
H     -5.236685   -4.735422   -0.309969
H     -6.470470    1.082132   -3.066309
H     -5.751648    3.073863    0.611276
H      3.125522   -3.510524    3.607225
H      3.529881   -5.131983   -0.347286
H      6.602146    2.515394    0.981340
H      6.621827    0.657308   -2.838480
H     -2.083671   -1.811412    2.122700
H     -4.417519   -2.653871   -1.358558
H     -4.516046   -0.400598   -2.669404
H     -3.862683    1.633645    0.984846
H      2.766804   -1.329871    2.620155
H      3.150553   -2.838917   -1.312647
H      4.441333    1.521129    1.501223
H      4.456372   -0.351846   -2.343583
H     -0.863693   -0.449518    1.217230
H     -1.848568    1.022391    1.255834
H      1.088387   -0.011817    1.844058
H      2.317752    1.263655    1.863925
H      0.193221    0.193079   -0.933214
H      0.203052    2.184158    1.378940
