20

C     -0.472316   -1.373252    0.973939
C      0.822067   -1.365707    0.725134
C     -1.355010   -0.429959    0.247131
C      1.326314   -0.409643   -0.272530
C     -0.778622    0.926393    0.031556
C      0.708766    0.981035   -0.073436
O     -1.671191   -1.044983   -0.978588
O      2.697048   -0.250470   -0.128481
O     -1.324305    1.544947   -1.102195
O      1.149217    1.749582   -1.139365
H     -0.861123   -2.062976    1.698398
H      1.528443   -2.024425    1.215311
H     -2.330819   -0.387785    0.803399
H      1.109791   -0.705797   -1.315345
H     -1.119069    1.567379    0.896659
H      1.125572    1.368886    0.901674
H     -2.623806   -1.018501   -1.175649
H      3.200660   -0.960140   -0.600028
H     -2.221822    1.170634   -1.316204
H      1.090204    2.724781   -0.971712
