45

C     -0.550498   -3.058264   -1.766912
C     -2.480733    4.466333    1.748298
C      5.325602   -1.862522   -0.416053
C     -3.809367    0.961619    0.110111
C     -3.330574    2.112341    0.649506
C     -3.544006   -1.247394   -0.853212
C     -2.534373   -2.372953   -0.628663
C      0.550880   -0.490633   -1.248203
C      2.802458   -0.603461   -0.368227
C      2.367232    1.478690    1.334049
C     -2.923232   -0.019742   -0.290010
C      1.569313    0.036870   -0.326840
C     -0.672872   -0.999458   -0.627214
C      3.639992    0.865894    1.335178
C     -1.990545    2.308431    0.799346
C      1.347904    1.072934    0.518028
C      3.812037   -0.197298    0.444012
C     -1.536378    0.116637   -0.165059
C     -1.109299    1.301983    0.387587
N     -1.385997   -1.967628   -1.404957
O      4.577043    1.288309    2.132000
O     -1.540270    3.497054    1.354699
O      5.040752   -0.791115    0.442403
O      0.172408    1.817725    0.680023
H     -0.001358   -2.804035   -2.697609
H      0.142096   -3.321619   -0.954196
H     -1.203482   -3.943490   -1.965770
H     -3.165004    4.091363    2.519321
H     -1.971309    5.374396    2.138109
H     -3.092292    4.758474    0.854588
H      4.976569   -2.840729    0.015270
H      4.860841   -1.707188   -1.393171
H      6.431218   -1.957852   -0.522659
H     -4.898342    0.810237   -0.009833
H     -4.055758    2.871921    0.956977
H     -3.709014   -1.186338   -1.945569
H     -4.459826   -1.550063   -0.315770
H     -2.309580   -2.364447    0.468080
H     -2.934328   -3.359904   -0.899087
H      0.888372   -1.020254   -2.110177
H      0.779066   -0.573958   -1.954077
H      2.897331   -1.424371   -1.068934
H      2.231140    2.298328    2.020082
H     -0.338820   -1.518506    0.317168
H      5.135000    1.653684    2.707365
