53

C      5.531328   -0.333391    1.493017
C      5.545254    0.552222   -0.695958
C      6.898646   -0.087988    1.614659
C      6.917779    0.802317   -0.583174
C      1.244756   -2.116138   -2.051125
C     -1.072682   -1.688920   -1.481913
C      2.569474    0.967588    0.394734
C     -5.174340    2.152844   -1.308918
C      4.845452   -0.016082    0.339746
C      7.578482    0.481518    0.565314
C     -0.099587   -2.365915   -2.212461
C      1.152865    0.513092    0.551374
C      3.411170   -0.295987    0.266523
C      1.666051   -1.158194   -1.131629
C     -0.683395   -0.739638   -0.568946
C     -4.724315    0.984093   -0.486392
C      0.699577   -0.501676   -0.421746
C     -5.501378    0.844247    0.801939
C     -4.621095    0.447108    1.959489
C     -3.474576   -0.421412    1.579948
C     -2.890591   -0.086014    0.216854
O     -4.359690    2.230259   -2.432738
O      8.951477    0.753159    0.624917
O     -0.549788   -3.315649   -3.122012
O      0.378276    0.930896    1.421304
O     -6.523480   -0.084589    0.592339
O     -4.144187    1.542646    2.665014
O     -3.801742   -1.771148    1.607432
O      3.030650   -0.898089   -0.961373
O     -1.522255    0.009887    0.224723
O     -3.386120    1.203347   -0.120634
H      4.989408   -0.781568    2.315102
H      4.997127    0.795877   -1.592992
H      7.449651   -0.330526    2.510465
H      7.415611    1.246760   -1.419564
H      1.996406   -2.648269   -2.624511
H     -2.121465   -1.900435   -1.624217
H      2.717810    1.568487   -0.520599
H      2.854013    1.573631    1.272811
H     -5.019946    3.085907   -0.712843
H     -6.230244    2.060191   -1.612425
H      3.053889   -0.977580    1.065388
H     -4.723081    0.047266   -1.082802
H     -5.908274    1.853753    1.035508
H     -5.270298   -0.128254    2.665876
H     -2.639740   -0.289217    2.315146
H     -3.247231   -0.828679   -0.493961
H     -3.534414    1.723339   -2.289963
H      9.480279    0.527379    1.467296
H     -0.767921   -3.101603   -4.086598
H     -6.142345   -0.781663   -0.007705
H     -3.525547    1.181993    3.356391
H     -3.715703   -2.203362    0.723890
