37

C      3.039309    1.554464    0.416686
C      5.041406    0.109891    1.023934
C     -4.760237    2.188962    0.967718
C     -0.768714   -1.888141   -2.065736
C      1.766621   -0.656890   -0.767034
C      3.129676   -0.792968   -0.137616
C      0.768026   -1.538430   -0.120433
C     -3.937640    0.010204    0.030565
C     -2.340061    1.564218    0.725102
C     -2.933885   -0.849985   -0.331641
C     -1.314946    0.701210    0.362222
C      3.709554    0.242574    0.408857
C     -3.663882    1.248116    0.571887
C     -0.610027   -1.544104   -0.585672
C     -1.564196   -0.525151   -0.174475
H      2.811975    1.941702   -0.597879
H      2.049587    1.512486    0.954140
H      3.629116    2.341748    0.922996
H      4.914511    0.053799    2.121724
H      5.675925    1.026889    0.849852
H      5.576966   -0.808749    0.711957
H     -5.312520    1.837491    1.844767
H     -5.403509    2.378823    0.085721
H     -4.284241    3.160311    1.217661
H     -1.828427   -2.182871   -2.208096
H     -0.155717   -2.782505   -2.313029
H     -0.579488   -1.027534   -2.715859
H      1.485487    0.394361   -0.691818
H      1.915501   -0.878813   -1.850726
H      3.611226   -1.754041   -0.147960
H      0.765278   -1.390066    0.999481
H      1.183047   -2.593604   -0.210851
H     -4.996434   -0.237374   -0.089424
H     -2.052510    2.518675    1.143419
H     -3.206336   -1.818614   -0.755237
H     -0.295771    1.004713    0.521016
H     -1.064669   -2.520798   -0.116221
