46

C     -4.815026   -0.301844   -1.992476
C     -3.524799   -0.908234   -1.480258
C      5.602346    0.175857   -0.541143
C      4.554450    0.836295   -1.153813
C      0.948767   -0.991391    1.510394
C     -0.164356   -1.771705    0.853869
C     -3.200134    1.073061    0.031545
C     -0.925494    1.745905    0.605471
C      4.078209   -0.882669    0.917781
C     -1.936041   -0.317814    1.592745
C     -2.173050    1.113022    1.166174
C     -2.633001    0.213265   -1.052194
C      5.387940   -0.708801    0.520423
C      1.650604   -0.205957    0.491581
C      3.027708   -0.225271    0.309037
C     -0.385508    0.977406   -0.582373
C      3.255325    0.644571   -0.737250
C      1.063134    0.654235   -0.422123
C     -1.224451   -0.278417   -0.709763
N      2.068484    1.152201   -1.151380
N     -1.306989   -1.011157    0.523925
O      6.461119   -1.352337    1.109646
H     -5.709223   -0.776451   -1.552226
H     -4.880860    0.786611   -1.741477
H     -4.851636   -0.330274   -3.120360
H     -3.038959   -1.422912   -2.328974
H     -3.758588   -1.595509   -0.645734
H      6.609395    0.354435   -0.898936
H      4.723001    1.528932   -1.985038
H      0.601975   -0.377618    2.362348
H      1.654030   -1.737315    1.931110
H     -0.470656   -2.557428    1.601781
H      0.230476   -2.274867   -0.025184
H     -3.336170    2.142195   -0.276349
H     -4.187316    0.728982    0.403056
H     -1.188699    2.779228    0.307049
H     -0.141804    1.748636    1.399616
H      3.870751   -1.558874    1.735702
H     -1.430508   -0.393867    2.569312
H     -2.958142   -0.771390    1.754472
H     -2.513830    1.704847    2.014134
H     -2.487623    0.882296   -1.950747
H     -0.524656    1.568489   -1.509339
H     -0.900106   -0.944132   -1.510051
H      1.911756    1.840877   -1.929579
H      6.968156   -0.955114    1.901883
