23

C      0.923281   -1.004390   -0.580121
C     -0.402041   -1.455512   -0.061928
C      1.476843    0.202457    0.083006
C     -1.323210   -0.391743    0.369086
C      0.527529    1.320087    0.277067
C     -0.907097    1.007182    0.163675
F      1.852422   -2.039448   -0.405257
O     -0.965475   -2.276629   -1.068841
O      2.597910    0.619266   -0.673265
O     -2.547837   -0.571001   -0.319323
O      0.825078    1.940702    1.512881
O     -1.430255    1.480967   -1.064633
H      0.844679   -0.824329   -1.662635
H     -0.189659   -2.178295    0.781144
H      1.919918   -0.109098    1.073967
H     -1.590445   -0.546971    1.456056
H      0.774448    2.113689   -0.489581
H     -1.449549    1.639814    0.930848
H     -0.262954   -2.798748   -1.535054
H      3.226971    1.131787   -0.137188
H     -3.222481   -1.008521    0.223122
H      0.642673    1.263956    2.211020
H     -1.320749    2.484777   -1.084044
