38

C      3.772358   -0.017257    1.043681
C     -0.405604    2.886673   -0.036161
C     -2.175060   -0.861993   -1.503718
C      0.955934   -1.878670    0.216613
C     -3.176021    0.334273    0.958892
C     -0.447820   -2.028118   -0.241400
C     -2.265167   -0.838708    0.926215
C      2.931820   -0.357913   -0.179334
C     -1.086374    1.586997    0.013190
C      1.514343   -0.514073    0.287887
C     -2.471084    1.536337    0.470950
C     -0.547508    0.448960   -0.321263
C      0.789942    0.314286   -0.784286
C      2.892206    0.921571   -0.979218
C     -1.313081   -0.817355   -0.232432
O     -3.147212    2.626264    0.452914
O      3.957731    1.423441   -1.448916
O      1.582896    1.382575   -1.080572
H      3.378064    0.980575    1.398490
H      3.623228   -0.748968    1.858855
H      4.811198    0.141566    0.754063
H      0.361481    3.016125    0.767570
H     -1.156873    3.677372    0.157031
H      0.063216    3.144202   -0.989116
H     -1.498794   -0.669332   -2.358978
H     -2.865594    0.023460   -1.449007
H     -2.726022   -1.809360   -1.575757
H      1.634866   -2.486849   -0.444852
H      1.065880   -2.390753    1.222464
H     -3.495073    0.487926    2.031663
H     -4.106074    0.142750    0.372506
H     -0.971169   -2.801922    0.398708
H     -0.450396   -2.531838   -1.258275
H     -1.662304   -0.908954    1.854639
H     -2.859970   -1.761813    0.856239
H      3.323096   -1.194230   -0.754137
H      1.347583   -0.101023    1.293014
H      0.821362   -0.356221   -1.698163
