39

C     -1.831156   -1.765457   -1.666622
C      3.260194   -1.906809   -0.005599
C     -0.359877   -0.963651    1.051098
C     -3.031657   -0.484290    0.117672
C     -3.129183    0.845744    0.788805
C      0.579811   -0.421764   -1.121864
C      0.562592    1.900494    0.735151
C     -1.909248   -0.495830   -0.866968
C      2.883472   -0.469997    0.127509
C      1.773586    0.038929   -0.360494
C     -0.705729    1.312694    0.181681
C     -1.817328    1.426570    1.165640
C      3.658850    0.556331    0.814596
C     -0.606182   -0.145872   -0.191546
C      1.781297    1.490997   -0.030965
O     -1.624172    1.982479    2.232689
O      4.777934    0.390901    1.392638
O      1.904532    2.192180   -1.242316
O      2.936905    1.748957    0.714450
H     -1.198843   -1.537519   -2.565901
H     -1.484387   -2.634983   -1.112303
H     -2.847396   -1.962032   -2.066477
H      2.475517   -2.501006    0.490864
H      3.406435   -2.206467   -1.065031
H      4.204080   -2.098384    0.552603
H      0.519975   -0.482191    1.567211
H     -0.019934   -1.976007    0.766266
H     -1.183399   -0.947109    1.761409
H     -3.011316   -1.337200    0.823035
H     -3.983666   -0.622453   -0.475221
H     -3.786971    0.825903    1.691356
H     -3.607433    1.550796    0.059499
H      0.512927    0.178464   -2.039168
H      0.607729   -1.500657   -1.285107
H      0.682218    1.692684    1.814791
H      0.467452    3.013499    0.632950
H     -2.111648    0.325979   -1.600377
H     -0.972605    1.880892   -0.754752
H      2.226623    3.105183   -1.031204
