32

C     -3.581972   -1.627670    0.128641
C      4.529246    0.855003    0.373424
C      3.281153    1.334141    0.699337
C      4.602515   -0.289225   -0.379022
C     -2.818202   -0.657914   -0.743689
C      2.115129    0.690456    0.286788
C      3.437790   -0.954855   -0.806002
C      2.195227   -0.464356   -0.472676
C     -0.454943    0.583670    0.239494
C     -2.890873    0.757811   -0.251206
C      0.798721    1.210400    0.640127
C     -1.764585    1.158731    0.629155
C      0.942152   -1.074470   -0.862403
C     -0.370233   -0.505533   -0.476919
O      3.573481   -2.082678   -1.548229
O     -4.080498    0.885644    0.471913
O      0.779891    2.264670    1.332989
O     -2.058780    0.934248    1.979775
O      0.943793   -2.111525   -1.543790
O     -1.507415   -1.138389   -0.882639
H     -2.898647   -2.184163    0.807766
H     -4.333661   -1.117735    0.766775
H     -4.097077   -2.407873   -0.491951
H      5.438396    1.349767    0.690404
H      3.189981    2.235351    1.292283
H      5.574075   -0.696543   -0.655278
H     -3.288946   -0.680547   -1.760602
H     -2.996223    1.470288   -1.121357
H     -1.643945    2.277487    0.536156
H      2.967193   -2.714180   -1.957755
H     -4.348198    1.833770    0.579528
H     -1.234543    0.866219    2.498962
