43

C      1.006269   -1.497084   -3.147195
C     -4.225005   -0.380505    3.181429
C     -0.356875   -1.824922    0.289016
C      0.539232    1.091635   -2.009757
C     -2.349392   -0.617770    1.144228
C      2.341023    1.807057   -0.438654
C     -2.445708    1.030533   -0.994799
C      2.470839   -0.660549    0.685078
C      5.079653    1.569392    1.957003
C     -1.392714   -0.771056    0.149388
C      1.498550    0.782332   -0.895921
C     -1.451930    0.076049   -0.937653
C      1.540761   -0.474510   -0.348198
C     -0.488853    0.009539   -2.058634
C      0.682780   -1.615977   -0.773711
C     -3.403202    1.199459   -0.020390
C     -3.336496    0.340167    1.073956
C      3.246306    1.604020    0.575866
C      3.297388    0.344891    1.133654
N      0.099320   -1.316123   -2.044771
O     -4.392282    2.163810   -0.096992
O     -4.302366    0.497692    2.074566
O      4.183638    2.409702    1.218659
O      4.281387    0.412557    2.120710
H      2.047563   -1.693374   -2.790011
H      0.965099   -0.615357   -3.819599
H      0.668603   -2.370185   -3.743029
H     -5.053628   -0.113899    3.894769
H     -3.249760   -0.252448    3.711568
H     -4.352425   -1.434935    2.895305
H      0.121133   -1.749348    1.284766
H     -0.846247   -2.829474    0.166738
H      0.009407    2.041393   -1.764146
H      1.068398    1.237582   -2.951634
H     -2.298515   -1.279148    1.987092
H      2.267955    2.790682   -0.908532
H     -2.504636    1.708603   -1.850406
H      2.510963   -1.664272    1.129078
H      5.920997    1.268266    1.279912
H      5.407201    2.021558    2.891021
H     -1.021840    0.100346   -3.042669
H      1.276532   -2.554468   -0.855533
H     -5.059125    2.232716    0.648429
