115

C      1.589949   -2.322694    0.759189
C     -1.308081   -5.811248    3.389786
C     -7.027854    2.462670    1.220815
C     -0.321795    0.032057    3.170479
C     -2.448850   -1.095954    3.085123
C     -4.259570   -2.942738    1.003779
C      5.030504   -3.977039   -0.841790
C     -3.527845    5.945519   -2.691380
C      4.952713   -2.972708    0.103817
C      5.035825   -3.661133   -2.183961
C     -3.109012    4.683723   -3.045102
C     -3.952491    6.147964   -1.399394
C      4.879826   -1.646457   -0.296428
C      4.962268   -2.331681   -2.551706
C     -3.128813    3.678435   -2.105729
C     -3.971865    5.134333   -0.453624
C      8.777521    2.974199   -1.535128
C      7.627244    2.497563    0.455485
C      9.700899    3.744189   -0.860128
C      8.551694    3.271068    1.148711
C     -4.267316   -1.761151   -2.444459
C     -0.686124    0.586188    0.142238
C     -6.350304   -1.297414   -0.381478
C      0.528204   -1.343441    0.947628
C     -0.863567   -5.024642    2.215599
C     -6.426686    1.145401    0.907498
C      4.883798   -1.310306   -1.632107
C      7.730123    2.337838   -0.909323
C     -3.550813    3.863732   -0.808051
C      9.600281    3.906665    0.514485
C      0.693297    0.096228    0.537831
C     -4.014150   -2.770280   -1.389253
C     -5.375352   -0.848180   -1.972117
C     -0.623958   -1.649980    1.443013
C      4.803342    0.128406   -2.014383
C      3.406141    0.632981   -2.138183
C     -0.992239   -2.972930    0.950638
C     -3.786517   -0.700264   -0.138056
C     -2.115383   -2.587939    0.008408
C     -3.152877    0.332549    0.624422
C      6.811835    1.548972   -1.680557
C     -3.551493    2.754927    0.132348
C      2.657740    0.713525   -0.855893
C     -1.359152   -0.603990    2.231659
C     -3.535570   -2.173011   -0.040187
C     -5.196348   -0.434417   -0.495122
C     -1.779219    0.423725    1.162672
N     10.467304    7.143154    0.893530
N      5.667140    0.902563   -1.169912
N     10.562286    4.704444    1.199666
N     10.677088    5.910525    0.891283
O     -0.037454   -5.516908    1.415785
O     -6.535293    0.180823    1.705254
O     -5.126549   -3.582183   -1.245678
O      2.714314   -0.216379   -3.001870
O     -1.668427   -2.642606   -1.128766
O      7.025298    1.404774   -2.930515
O     -3.920817    2.944685    1.296797
O      3.075741    1.381966    0.111397
O     -1.751029    1.609970    1.914843
O     -6.428278   -1.703965   -1.671860
O     -1.349431   -3.777713    2.009224
O      1.445038    0.041019   -0.676409
O     -3.151536    1.526054   -0.266693
O     -5.708819    0.903756   -0.296232
H      2.486491   -1.846484    1.279662
H      1.947386   -2.451070   -0.274040
H      1.477620   -3.253965    1.338448
H     -2.400795   -5.659079    3.599454
H     -0.778717   -5.514670    4.318199
H     -1.208351   -6.919656    3.197491
H     -6.521520    2.854421    2.148808
H     -8.126373    2.376593    1.399167
H     -6.893260    3.131996    0.355327
H     -0.647345   -0.049946    4.254105
H      0.633861   -0.506303    3.158506
H     -0.253029    1.126875    3.019695
H     -2.516265   -2.197018    3.193186
H     -2.256653   -0.753272    4.150761
H     -3.397417   -0.626308    2.828661
H     -3.567674   -3.635188    1.590139
H     -4.944604   -3.755623    0.619883
H     -4.702767   -2.347394    1.824980
H      5.088093   -5.008392   -0.557229
H     -3.495660    6.706101   -3.459624
H      4.950661   -3.257146    1.153322
H      5.098460   -4.474778   -2.895928
H     -2.755927    4.445724   -4.056713
H     -4.283967    7.134308   -1.112820
H      4.820301   -0.904250    0.494107
H      4.966207   -2.080706   -3.602249
H     -2.799683    2.687894   -2.385785
H     -4.316467    5.336297    0.563529
H      8.946614    2.909505   -2.622134
H      6.822846    2.022435    1.014741
H     10.534221    4.250702   -1.359423
H      8.489442    3.409681    2.225423
H     -3.433288   -1.301022   -2.946287
H     -4.775610   -2.361841   -3.280777
H     -0.911076    0.010052   -0.800251
H     -0.480456    1.661724   -0.099512
H     -6.498944   -2.014987    0.438867
H     -7.338797   -0.697282   -0.278260
H      1.242232    0.717085    1.216206
H     -3.236658   -3.460854   -1.822892
H     -5.655373   -0.028120   -2.625793
H      5.233357    0.161701   -3.060827
H      3.448605    1.639438   -2.594216
H     -0.262747   -3.510364    0.365030
H     -3.256199   -0.521037   -1.185601
H     -3.788535    0.694738    1.452105
H      5.470036    1.010817   -0.139488
H     -5.141114   -4.358174   -1.831208
H      2.682672   -1.113847   -2.605388
H     -1.190366    2.303455    1.548319
