115

C     -0.272549   -0.947737    2.419479
C     -0.873049   -6.124556    3.961595
C     -3.814260    3.874199    0.374439
C     -0.132124   -3.850223   -0.757825
C     -2.465863   -4.182498   -0.576708
C     -5.379380   -2.774196    0.513976
C      5.036268    6.052991   -0.212691
C     -0.735534    4.904391   -2.713390
C      5.233800    5.229261   -1.321051
C      4.345787    5.563602    0.867960
C     -0.446985    4.166461   -1.589810
C     -1.589673    4.375727   -3.675799
C      4.730846    3.928460   -1.315424
C      3.856645    4.263665    0.845043
C     -1.007068    2.903539   -1.424381
C     -2.136878    3.102339   -3.478906
C      6.505002   -0.977253   -1.535706
C      8.221347    0.314576   -0.592778
C      7.431109   -1.975652   -1.859798
C      9.140857   -0.655648   -0.904286
C     -6.248164   -0.587520    1.867859
C     -0.312492   -1.182058   -1.309479
C     -5.609268   -0.095587   -1.263653
C     -0.392998   -1.616400    1.117117
C     -1.169857   -4.691623    3.714667
C     -4.693334    2.690979    0.175269
C      4.038681    3.434339   -0.232852
C      6.864702    0.188851   -0.897194
C     -1.850635    2.368947   -2.364904
C      8.753778   -1.819965   -1.544701
C      0.483210   -1.173400   -0.062548
C     -5.014358   -1.201112    2.305600
C     -6.059722    0.080786    0.571112
C     -1.255357   -2.587895    0.959676
C      3.527246    2.080408   -0.245840
C      2.872851    1.637667    1.074242
C     -1.961316   -2.895788    2.210779
C     -3.698918   -0.881710    0.286795
C     -3.404803   -2.783302    1.924039
C     -2.798325   -1.043742   -0.828052
C      5.915141    1.234089   -0.534144
C     -2.429356    1.055791   -2.162169
C      2.322219    0.294836    0.752854
C     -1.395505   -3.149657   -0.437586
C     -4.331694   -1.909146    1.104106
C     -4.782271    0.196883   -0.077915
C     -1.693113   -1.872810   -1.188144
N     12.058109   -2.095164   -1.764258
N      4.511358    1.059805   -0.598379
N      9.735971   -2.818388   -1.857740
N     10.929368   -2.592534   -1.561740
O     -0.963461   -3.876539    4.643282
O     -5.902111    2.899387    0.087179
O     -5.298667   -2.120840    3.313105
O      3.904682    1.532089    2.030201
O     -4.011005   -3.653777    2.535403
O      6.410410    2.330049   -0.145661
O     -3.172586    0.614757   -3.063461
O      3.037561   -0.722006    0.927237
O     -1.864505   -2.386919   -2.483754
O     -6.741876   -0.464668   -0.529262
O     -1.659097   -4.266217    2.498349
O      1.051447    0.080579    0.270321
O     -2.225654    0.281253   -1.078786
O     -4.237927    1.463908    0.090693
H      0.490654   -0.126000    2.301353
H      0.132688   -1.569159    3.236878
H     -1.199379   -0.371101    2.718737
H      0.126553   -6.176247    4.445546
H     -1.617466   -6.494459    4.720321
H     -0.938308   -6.728182    3.032043
H     -2.953257    3.697352    1.020605
H     -3.417397    4.177735   -0.636991
H     -4.412689    4.761562    0.694283
H     -0.302255   -4.930385   -1.108352
H      0.470091   -4.100723    0.177357
H      0.487275   -3.502904   -1.568202
H     -2.140295   -5.063314   -1.222868
H     -2.782859   -4.670274    0.360422
H     -3.329130   -3.805111   -1.198674
H     -6.328420   -2.685529    1.034973
H     -5.435303   -2.842975   -0.579832
H     -5.070444   -3.848989    0.775759
H      5.435831    7.081474   -0.220176
H     -0.321821    5.883649   -2.878248
H      5.778878    5.645498   -2.152520
H      4.203098    6.215058    1.715039
H      0.222499    4.618822   -0.871343
H     -1.808407    4.961927   -4.554492
H      4.926973    3.346396   -2.208332
H      3.328808    3.952238    1.723419
H     -0.734546    2.385608   -0.518530
H     -2.787889    2.715244   -4.229924
H      5.461958   -1.134723   -1.805561
H      8.514005    1.243829   -0.083464
H      7.108151   -2.879524   -2.361933
H     10.178689   -0.508633   -0.646194
H     -6.505611    0.173300    2.711380
H     -7.189677   -1.167375    1.856938
H     -0.431322   -0.151095   -1.770119
H      0.320745   -1.626498   -2.107797
H     -5.798006    0.773217   -1.962178
H     -5.429048   -0.934052   -1.934036
H      1.327188   -1.887488    0.016295
H     -4.304201   -0.416599    2.654705
H     -6.630174    1.050249    0.677616
H      2.728367    1.987082   -1.043814
H      2.150676    2.354609    1.409657
H     -1.740379   -2.264879    3.065317
H     -3.055151   -0.344004    1.076811
H     -3.522429   -1.095592   -1.717403
H      4.180025    0.104970   -0.928903
H     -5.983962   -1.737593    3.916701
H      3.457289    1.655636    2.901396
H     -1.747273   -1.728519   -3.185271
