39

C     -0.731364    0.778552   -2.169391
C      2.965808   -3.109981   -0.836276
C      5.218621    1.226486   -0.072929
C     -3.934838   -0.322141    3.148914
C     -3.068623    0.972344   -1.670774
C     -4.071824    0.406383    0.491278
C      2.899268   -0.305887   -0.118346
C     -1.887906    0.634007   -1.201272
C     -4.281472    0.891476   -0.867748
C      1.757540   -1.080622   -0.145940
C      2.835651    1.034020    0.229386
C     -2.894641    0.070639    0.955823
C      0.525883   -0.545989    0.170359
C      1.597097    1.544962    0.540810
C      0.432950    0.784317    0.520153
C     -0.837540   -1.055717    0.238754
C     -1.692199    0.157024    0.142505
Cl     1.489997    3.241511    0.985616
O     -5.417101    1.203926   -1.280838
O     -1.149497   -2.244215    0.351635
O      1.809305   -2.408562   -0.488902
O      3.988677    1.839101    0.262887
O     -2.812490   -0.393149    2.309227
O     -0.869139    1.153888    0.805917
H     -0.085404   -0.106007   -2.167616
H     -1.124943    0.882394   -3.198299
H     -0.173646    1.705311   -1.927861
H      3.732442   -2.496799   -1.340845
H      2.671819   -3.934486   -1.513063
H      3.426066   -3.500250    0.097111
H      6.074151    1.899566    0.058560
H      5.420690    0.338811    0.594977
H      5.194391    0.796902   -1.103450
H     -3.638724   -0.729200    4.126416
H     -4.779607   -0.964483    2.762308
H     -4.362720    0.699785    3.211913
H     -3.170874    1.336078   -2.714634
H     -4.929619    0.309663    1.177390
H      3.873814   -0.709657   -0.363756
