24

C     -2.068084   -1.341269   -0.404467
C      2.769174   -1.177584    0.753148
C      2.270006   -0.207087    1.581535
C      2.061374   -1.527862   -0.374165
C      1.054725    0.420417    1.284568
C      0.863501   -0.894604   -0.647120
C      0.335698    0.085938    0.168068
C     -1.003449    1.071635   -1.659864
C     -0.951215    0.699746   -0.209028
C     -1.212498    2.021373    0.530331
Cl     0.353992    2.070906   -2.222070
F     -0.256279    2.957334    0.294817
F     -1.433214    1.821500    1.873833
F     -2.453000    2.491281    0.046208
O     -1.884573    0.733755   -2.410027
O     -2.040238   -0.092428    0.143078
H     -2.091377   -1.389369   -1.509849
H     -3.051770   -1.796100   -0.082162
H     -1.300708   -2.033761    0.002373
H      3.698452   -1.650239    0.989805
H      2.830271    0.057596    2.457135
H      2.474112   -2.300319   -1.019218
H      0.713701    1.175370    1.968195
H      0.321399   -1.196230   -1.555123
