62

C      5.552841    2.778526    0.130359
C      8.462641   -0.565735   -0.097682
C     -1.526616   -1.834477    1.968512
C     -7.794837   -0.260155   -0.398209
C     -6.116278   -0.450774    1.435617
C     -6.258175    1.603724    0.127468
C      6.721293    1.929571    0.574782
C      7.291989   -0.474987    0.854656
C      2.133098    0.577443   -0.796682
C      0.812140    0.249193   -1.016704
C      1.959433   -0.427123    1.338882
C     -4.098427   -0.037218   -0.681138
C     -1.821533   -0.339600   -1.614517
C     -0.118165   -1.470105    2.170737
C      2.714280    0.233924    0.399017
C     -3.253171   -0.744050   -1.742216
C      0.616391   -0.773451    1.143005
C      0.056924   -0.422603   -0.052763
C      5.075492    0.187448    0.035496
C     -6.379350    0.119458    0.054751
N     -5.466901   -0.477602   -0.898316
N      4.060062    0.525665    0.725352
N      6.355399    0.548785    0.485956
O      0.453721   -1.763723    3.240958
O     -3.738942   -0.371711   -3.015446
O      4.879057   -0.526359   -1.137370
O     -1.275372   -0.711117   -0.368939
Cl     0.687737    0.000000    0.000000
H      4.886679    2.999143    1.004311
H      5.898869    3.797037   -0.211170
H      4.958121    2.315254   -0.678002
H      8.105032   -0.578732   -1.143090
H      8.933143   -1.565683    0.080102
H      9.235175    0.184826    0.072391
H     -2.188882   -0.941339    1.926101
H     -1.856372   -2.509290    2.818697
H     -1.594889   -2.488478    1.076549
H     -7.800524   -1.356140   -0.550511
H     -7.967533    0.238850   -1.384102
H     -8.550434    0.031749    0.337563
H     -5.382967   -1.282707    1.423409
H     -5.716398    0.311720    2.141369
H     -7.068145   -0.883772    1.852913
H     -7.246972    2.064764    0.352165
H     -5.572178    1.861006    0.979933
H     -5.815820    2.063816   -0.780600
H      7.643683    2.176471    0.008408
H      6.863357    2.146040    1.675482
H      7.670829   -0.274809    1.883019
H      6.799478   -1.480140    0.861998
H      2.728121    1.093870   -1.526381
H      0.382649    0.531905   -1.965464
H      2.375133   -0.718584    2.298564
H     -3.991852    1.046772   -0.781931
H     -3.795856   -0.379648    0.308482
H     -1.778624    0.786683   -1.666345
H     -1.225019   -0.716870   -2.458765
H     -3.372228   -1.836209   -1.665364
H     -5.550086   -1.499076   -0.928977
H     -3.385734   -1.092694   -3.628328
H      4.083251   -1.148678   -1.263301
H     -0.687737    0.000000    0.000000
