42

C      3.276018    2.039688   -0.103397
C     -2.903696    0.749578    0.798847
C     -2.804486    0.383447   -1.598928
C      0.509691   -0.784687    1.410616
C     -1.279682   -2.168540   -0.999195
C      0.945809    2.186005    0.478040
C     -0.453162    1.711411    0.583578
C     -2.219477   -1.423352   -0.086877
C      0.153660   -1.772316   -0.816586
C      2.875027   -0.721690   -0.344575
C      1.897462    1.458459   -0.048643
C      1.661536    0.117565   -0.577487
C     -0.693555    0.557929   -0.343445
C     -2.083450    0.065939   -0.280223
C      0.378265   -0.499995   -0.078485
O      2.794496   -2.016915   -0.795478
H      3.724612    1.802750   -1.104350
H      3.263891    3.137147    0.011354
H      3.869354    1.582727    0.695674
H     -3.949046    0.370756    0.665361
H     -2.952161    1.847942    0.664233
H     -2.591565    0.449820    1.798886
H     -3.023833    1.462002   -1.670152
H     -2.211029    0.067537   -2.467921
H     -3.776829   -0.150922   -1.630406
H     -0.384396   -0.466364    1.984014
H      1.360538   -0.188983    1.845472
H      0.698113   -1.857087    1.567105
H     -1.593822   -1.963627   -2.048899
H     -1.453870   -3.254122   -0.831823
H      1.176566    3.189497    0.861320
H     -0.755485    1.506614    1.627242
H     -1.094399    2.582962    0.258722
H     -3.255497   -1.691061   -0.414998
H     -2.122068   -1.755387    0.947026
H      0.617825   -2.595215   -0.196240
H      0.695574   -1.775339   -1.792484
H      3.707187   -0.231934   -0.919768
H      3.216510   -0.725492    0.709298
H      1.541693    0.210916   -1.694517
H     -0.463764    0.940513   -1.382030
H      3.701447   -2.378176   -0.965983
