25

C     -2.019465   -1.066184   -0.002608
C     -0.629510   -1.241877    0.571932
C      1.135262    1.563180   -0.505562
C     -2.260826    0.428483   -0.052486
C     -0.299444    1.450264   -1.009781
C      2.022403   -0.665137   -0.038783
C      1.216723    0.463213    0.526649
C     -0.172545    0.126563    0.898196
N     -1.005196    1.072752    0.191869
O      2.163894   -1.732734    0.822656
H     -2.795421   -1.599630    0.578888
H     -2.084456   -1.470080   -1.041696
H     -0.011985   -1.782765   -0.161645
H     -0.759861   -1.806361    1.532042
H      1.244492    2.564321   -0.050697
H      1.868655    1.413338   -1.324241
H     -3.003070    0.742085    0.736375
H     -2.694181    0.756094   -1.015990
H     -0.390844    0.670745   -1.800936
H     -0.615445    2.448007   -1.357798
H      1.680747   -0.972717   -1.063905
H      3.060766   -0.258083   -0.213066
H      1.803905    0.885099    1.383406
H     -0.303278    0.352953    1.995173
H      2.848679   -2.341532    0.402009
