32

C     -1.256837   -2.182384    0.405599
C      0.871811    1.376240    1.820799
C     -0.144691    0.640815    1.271834
C      2.128615    1.273583    1.215785
C     -3.276712   -0.097510    0.435318
C     -3.863757    1.258152   -1.159073
C     -1.053799   -0.947688   -0.430104
C      0.073000   -0.177013    0.152487
C      2.370969    0.483549    0.122848
C     -2.289437   -0.131600   -0.502609
C      1.311763   -0.272441   -0.435363
C      3.678222    0.389126   -0.495553
N      4.692257    1.019179   -0.078892
N     -4.242454    0.757392    0.028948
N     -2.668282    0.713443   -1.483826
O      1.621512   -1.049843   -1.535103
O      3.880567   -0.432725   -1.620868
Cl     0.691510    0.000000    0.000000
H     -1.703339   -1.926009    1.379493
H     -0.264320   -2.647649    0.617743
H     -1.939991   -2.928011   -0.091083
H      0.699647    2.003098    2.680397
H     -1.170571    0.645496    1.664654
H      2.925265    1.862766    1.661823
H     -3.377101   -0.626418    1.387354
H     -4.437048    1.970396   -1.729582
H     -0.831019   -1.285583   -1.457720
H      4.660514    1.641295    0.726356
H     -2.169510    0.949933   -2.365334
H      0.983541   -1.630306   -2.017300
H      4.791183   -0.649284   -1.995712
H     -0.691510    0.000000    0.000000
