30

C     -0.650060   -2.256536   -0.550963
C     -1.250454    2.729079   -0.241176
C      2.661163   -1.480977    0.277708
C     -3.154768   -0.163037    1.271323
C     -2.444197   -1.243216    0.768117
C     -2.720722    1.111278    0.909161
C     -1.355916   -1.032431   -0.055398
C     -1.631587    1.309274    0.085360
C      1.882903   -0.176466    0.399053
C     -0.932088    0.234289   -0.409671
C      1.397541    0.260588   -0.937358
N      2.806740    0.803130    0.948924
N      0.177892    0.426699   -1.249008
O      2.364402    0.501181   -1.907014
H      0.155384   -2.014051   -1.244138
H     -0.312514   -2.797115    0.365434
H     -1.442392   -2.918627   -1.008532
H     -1.382209    3.356187    0.657754
H     -0.269313    2.800104   -0.706742
H     -1.988839    3.117598   -1.000637
H      2.951180   -1.573346   -0.809269
H      2.040952   -2.351660    0.551966
H      3.615044   -1.444887    0.853372
H     -4.010763   -0.319193    1.918794
H     -2.780281   -2.234405    1.048654
H     -3.248979    1.966514    1.281786
H      1.042929   -0.317916    1.115122
H      3.758891    0.732201    0.522328
H      2.470544    1.768727    0.893363
H      2.249516    1.207014   -2.631747
