37

C      2.702103    1.161405    1.203804
C      3.865042    0.478965   -0.911912
C     -1.641652   -1.805890    1.057142
C     -3.436789    0.038719   -0.972046
C     -2.395103    1.721814    0.236486
C      0.032732    0.944378   -0.391159
C      0.722108   -1.244844    0.686259
C      1.351564    0.462563   -0.919016
C      1.784514   -0.793379   -0.264275
C     -1.048252   -0.068777   -0.656455
C      2.574775    0.429771   -0.096692
C     -0.634260   -1.360115    0.005097
N     -2.313007    0.324813   -0.102676
O     -0.590144   -2.379585   -0.953800
H      3.516871    0.700714    1.811668
H      1.799664    1.165649    1.825072
H      3.063254    2.196022    0.976754
H      3.968420    1.458965   -1.405944
H      3.867276   -0.290059   -1.713252
H      4.756739    0.301041   -0.265499
H     -2.559531   -2.216376    0.601573
H     -1.850804   -1.007333    1.784693
H     -1.159570   -2.650160    1.609256
H     -3.525800   -1.025038   -1.241128
H     -4.347792    0.323507   -0.387026
H     -3.441141    0.648119   -1.892230
H     -3.388228    1.866958    0.732007
H     -1.644082    2.059624    0.962982
H     -2.386881    2.392530   -0.634098
H      0.113448    1.069860    0.695747
H     -0.271351    1.902636   -0.837809
H      0.983228   -2.288956    0.995294
H      0.656755   -0.662881    1.616080
H      1.425807    0.545646   -2.033056
H      2.131785   -1.595745   -0.961733
H     -1.134941   -0.205281   -1.762575
H     -1.546757   -2.599283   -1.141674
