46

C     -3.109596    0.149567   -0.907781
C     -2.558473   -3.619190    1.369337
C      2.492001   -1.708002   -0.107471
C      2.733858    0.403156    0.899168
C      3.829396   -1.995378    0.026276
C      4.080433    0.174825    1.060561
C     -2.284576    0.216177    1.382642
C     -1.769492    2.503074    0.765240
C      0.728802    1.870121   -0.376324
C     -0.193889    5.270250   -0.945623
C     -2.632670   -0.717782    0.237948
C      1.916715   -0.513854    0.320321
C     -1.323496    1.223069    0.781683
C      4.605154   -1.020215    0.621492
C     -0.088358    0.919710    0.218411
C     -0.954743    3.476144    0.170985
C      0.276891    3.155828   -0.390786
C      0.498753   -0.410774    0.192843
C     -2.046854   -2.832718   -0.780805
N      5.997064   -1.256389    0.788223
N     -2.509348   -3.788449   -0.063571
N     -0.204543   -1.514388   -0.005696
N     -1.591658   -1.625375   -0.150529
O     -2.005753   -3.009502   -2.155838
O     -1.141844    4.836834    0.009917
O      0.856813    4.303919   -0.900558
H     -2.349935    0.222625   -1.711366
H     -3.406006    1.162134   -0.561475
H     -4.027992   -0.283392   -1.393589
H     -3.605195   -3.449669    1.665480
H     -2.246742   -4.577062    1.848442
H     -1.914034   -2.776194    1.709140
H      1.882184   -2.480403   -0.578053
H      2.359554    1.359227    1.302670
H      4.256412   -2.940671   -0.317963
H      4.732676    0.935679    1.534226
H     -1.717601   -0.341678    2.129962
H     -3.191109    0.710520    1.718891
H     -2.720899    2.733434    1.201515
H      1.651079    1.515682   -0.818900
H     -0.686123    5.308566   -1.930253
H      0.197767    6.279614   -0.719908
H     -3.534840   -1.317936    0.554071
H      6.557949   -1.744424    0.066335
H      6.447746   -0.925067    1.661260
H     -2.285477   -3.881641   -2.603371
