27

C      1.855169   -0.721370    0.344936
C     -2.794214    0.357982    0.485062
C     -2.368468   -0.035501   -0.925277
C      3.210902   -0.871644    0.244858
C     -0.581523    0.466376    1.479815
C      1.998417    1.412321   -0.685407
C      1.244307    0.418451   -0.118587
C     -1.826157   -0.388938    1.352398
C     -0.197667    0.549145    0.001719
C     -0.979018   -0.550245   -0.662865
C      3.953034    0.123327   -0.320970
Cl     5.698506   -0.064390   -0.452532
N      3.334962    1.225246   -0.765603
N     -1.273779   -1.439724    0.475975
H      1.274303   -1.525271    0.799702
H     -2.660830    1.442919    0.585991
H     -3.848168    0.111818    0.682381
H     -3.022706   -0.863387   -1.238905
H     -2.393865    0.819064   -1.620989
H      3.692286   -1.777224    0.613621
H      0.174336   -0.078268    2.046016
H     -0.804755    1.467676    1.890972
H      1.544921    2.339464   -1.067885
H     -2.211919   -0.766389    2.277154
H     -0.529398    1.520595   -0.417517
H     -0.497326   -1.044442   -1.481123
H     -1.991350   -2.127589    0.225069
