76

C      0.113357    4.472381   -0.054297
C     -2.007374   -3.822064   -0.015629
C     -5.606227   -3.452601   -0.885391
C     -0.456727    3.862239   -1.314484
C     -4.310477    2.776956    0.039637
C     -3.480253    1.913169   -0.643023
C     -4.489175    2.606181    1.393663
C      5.829417    0.327139    1.577590
C      6.247032   -0.758321    0.625935
C      4.258811   -1.949306    0.727960
C      3.789484   -1.508540   -0.611739
C      1.761449   -0.646222    0.178963
C     -1.539238   -2.408763   -0.218607
C     -2.801504    0.864777   -0.036771
C     -3.843895    1.587460    2.038254
C      0.331223   -0.764407   -0.136188
C     -2.366455   -1.468476   -0.605436
C     -1.957155   -0.081191   -0.817182
C     -0.510282    0.154831   -0.522926
C     -3.010254    0.731143    1.318403
C     -3.768455   -1.861981   -0.828022
C     -0.000129    1.521516   -0.706842
Cl    -4.059924    1.351249    3.771810
Cl    -2.205800   -0.569113    2.211545
N      6.569010    1.530387    1.194174
N     -0.187324   -2.108642    0.027370
O     -4.601647   -0.969666   -1.205870
O      1.161648    1.903733   -0.534792
O     -4.259976   -3.124813   -0.660754
O      5.651432   -1.970740    0.833709
O      2.422162   -1.496002   -0.714480
O     -0.886023    2.526182   -1.119030
C      0.460915   -0.724063   -0.555475
C     -0.506444   -0.561597    0.608517
C      1.493943    0.325348   -0.457240
C     -1.314931    0.653763    0.537169
O      1.128507   -1.957824   -0.428613
O     -1.401063   -1.673002    0.559528
O      2.672613   -0.035215   -0.148143
O      1.223927    1.683859   -0.692466
O     -2.572377    0.530097    0.328569
O     -0.883405    1.954998    0.672444
H     -0.481194    5.362096    0.252306
H      1.156667    4.777401   -0.236529
H      0.086403    3.776221    0.807674
H     -1.099076   -4.411024    0.309232
H     -2.327203   -4.285241   -0.965502
H     -2.720048   -3.911804    0.817855
H     -6.281044   -2.588379   -0.779008
H     -5.747426   -3.940796   -1.879268
H     -5.897910   -4.194737   -0.108512
H      0.328127    3.818657   -2.111043
H     -1.349874    4.420135   -1.643968
H     -4.821072    3.587957   -0.487316
H     -3.393343    2.069845   -1.694677
H     -5.149271    3.295374    1.928504
H      4.747644    0.507935    1.613183
H      6.164764    0.089859    2.622236
H      7.350381   -0.918826    0.807097
H      6.189261   -0.381344   -0.414829
H      3.816265   -1.301485    1.526174
H      3.905092   -2.979290    0.932123
H      4.157115   -2.160210   -1.440843
H      4.180398   -0.454495   -0.751258
H      2.135156    0.339876    0.181008
H      1.884317   -1.097661    1.225831
H     -2.137911    0.151250   -1.904998
H      7.090493    1.945774    1.979798
H      5.961684    2.203297    0.684183
H      0.464872   -2.888876    0.340035
H     -0.096225   -0.645207   -1.494180
H     -0.009988   -0.597589    1.594220
H      1.138139   -2.463347   -1.271056
H     -2.070210   -1.460276    1.269186
H      2.020385    2.302266   -0.614964
H     -1.283785    2.667791    0.092503
