35

C      1.687775   -1.000862    0.633463
C     -1.169982    1.438934   -1.070826
C      2.911667   -0.650915    1.152852
C     -2.127970    2.280093   -0.563090
C      2.084206    0.501610   -1.139627
C     -0.389984   -2.210109   -0.999282
C     -1.902482   -1.662275    0.828230
C      1.256473   -0.419980   -0.533706
C     -1.103105    0.140896   -0.605275
C     -0.079104   -0.773785   -1.138822
C     -1.993278   -0.283197    0.353826
C      3.752235    0.279409    0.545305
C     -3.008917    1.861808    0.385671
C      3.323728    0.863092   -0.623482
C     -2.966139    0.570428    0.869885
N     -1.262735   -2.601436    0.016549
O      4.975855    0.608339    1.093844
O     -3.977197    2.700712    0.903475
O      4.082408    1.798453   -1.305553
O     -3.867981    0.150317    1.838498
H      1.060138   -1.724367    1.127423
H     -0.474373    1.778064   -1.823526
H      3.296264   -1.082535    2.072959
H     -2.176642    3.287151   -0.927183
H      1.774053    0.971157   -2.051493
H      0.590525   -2.756371   -0.860789
H     -0.773034   -2.626541   -1.979093
H     -1.437628   -1.690092    1.856148
H     -2.955426   -2.034150    1.008476
H      0.032516   -0.537935   -2.221268
H     -1.765547   -3.492558   -0.158231
H      5.593532    1.275793    0.670020
H     -4.049780    3.648931    0.584355
H      4.974665    2.146174   -1.056298
H     -3.914734   -0.754251    2.248295
