40

C      2.700172   -1.911023    0.096131
C      3.779805    0.132567    0.958795
C     -3.735700   -0.794912    1.733563
C     -2.516707   -1.803060   -0.243986
C      0.539612    2.075847   -1.866533
C      0.020068   -0.538429    0.561775
C     -1.417844    1.057536   -0.817257
C      2.985946   -0.486396   -0.205239
C     -1.261522   -0.187375    1.296377
C     -2.113408    0.666826    0.448516
C      0.854481    0.660497    0.209805
C     -2.548479   -0.699478    0.766522
C     -0.045769    1.650193   -0.544117
N      1.933739    0.349751   -0.630766
O     -0.210648    2.805994    0.224771
H      3.576254   -2.522255   -0.322396
H      2.706082   -2.182301    1.175181
H      1.848403   -2.263716   -0.481406
H      4.284956   -0.711202    1.468803
H      3.105973    0.658581    1.661524
H      4.544415    0.842261    0.596515
H     -4.616904   -0.422490    1.163687
H     -3.868888   -1.842814    2.086500
H     -3.584507   -0.085144    2.572465
H     -2.549228   -1.360443   -1.268248
H     -3.442814   -2.454426   -0.208912
H     -1.662878   -2.503314   -0.138936
H      0.032045    3.025827   -2.150565
H      1.624078    2.169539   -1.815676
H      0.288157    1.266819   -2.608642
H     -0.209509   -1.085420   -0.368831
H      0.584441   -1.260196    1.218282
H     -2.003809    1.904937   -1.274554
H     -1.382643    0.281959   -1.590072
H      3.749939   -0.465809   -1.048632
H     -1.145156   -0.015202    2.375185
H     -2.596657    1.524936    0.987631
H      1.202575    1.165187    1.152839
H      1.660996    0.169553   -1.634792
H     -1.109068    3.186596    0.129778
