66

C     -3.969280   -2.083264   -1.333865
C     -5.629405   -1.196281    0.204494
C     -2.963086   -1.594982    4.117588
C     -3.774808   -0.509539    3.812918
C     -2.258134   -2.222084    3.110804
C      7.165048   -1.560184    0.495422
C      7.758446   -0.479703   -0.393426
C     -3.868398   -0.072986    2.515389
C     -2.389408   -1.738079    1.812289
C      0.256514   -0.301150   -0.595621
C     -0.823817    1.323425    0.724600
C     -1.982831    2.208650   -3.779339
C      1.468643    0.061101   -0.084169
C      0.427270    1.696939    1.251329
C     -1.637209    1.446545   -2.671889
C      6.573285   -0.758981    1.627989
C      6.749996    0.638133   -0.235447
C      5.207563    1.215948    1.519617
C      3.992590    0.665562    0.850929
C     -4.229460    1.552443   -3.503290
C     -0.905892    0.319528   -0.203032
C     -3.169714   -0.681940    1.461255
C     -3.288315    2.264295   -4.201690
C      1.570174    1.068862    0.849407
C     -2.568830    0.726691   -1.960787
C     -3.872927    0.791359   -2.393760
C     -2.177779   -0.092861   -0.771141
C     -3.352139   -0.125417    0.134036
C     -4.457110   -0.850247   -0.652680
N      6.437186    0.600027    1.160169
O     -3.620258    3.041126   -5.327039
O      2.844154    1.377551    1.319861
O     -4.840406    0.067803   -1.686375
H     -3.579612   -1.858874   -2.370640
H     -4.875200   -2.734681   -1.535329
H     -3.292848   -2.721016   -0.768326
H     -6.283729   -1.867541   -0.393129
H     -6.227446   -0.315848    0.511528
H     -5.279802   -1.773814    1.083734
H     -2.882529   -1.947246    5.138023
H     -4.313403   -0.041517    4.637380
H     -1.612733   -3.071481    3.306916
H      7.961872   -2.254284    0.887534
H      6.417680   -2.123127   -0.070027
H      8.776296   -0.180424   -0.057021
H      7.797124   -0.872166   -1.431466
H     -4.521690    0.782169    2.334466
H     -1.828799   -2.237479    1.047877
H      0.213843   -1.108653   -1.338393
H     -1.685538    1.866182    1.087018
H     -1.235113    2.759206   -4.311616
H      2.342002   -0.462816   -0.434045
H      0.493379    2.498334    1.990459
H     -0.610520    1.390222   -2.321603
H      7.375341   -0.715242    2.423384
H      5.665253   -1.183231    2.066108
H      5.900556    0.458209   -0.916724
H      7.301683    1.586658   -0.442897
H      5.294840    2.304470    1.273917
H      5.093462    1.153353    2.619570
H      3.874563   -0.414479    0.902412
H      4.030657    0.918946   -0.250125
H     -5.252575    1.591578   -3.829102
H     -2.085914   -1.151520   -1.191716
H     -3.760226    0.929303    0.203564
H     -3.882536    3.998520   -5.295019
