71

C     -4.414157   -2.683112    2.372575
C      5.273569   -0.953320    2.873590
C      3.648070    0.689213    3.441952
C      3.949993   -0.873791   -3.383788
C      2.689397    1.165300   -3.454357
C     -6.350104    0.095709   -1.824025
C     -3.313522   -3.154554    1.418507
C     -2.071304   -2.435777    1.733490
C     -2.959385    3.941613   -1.170515
C     -4.149330    3.951879   -1.911628
C      5.484479    1.689558   -0.378680
C     -1.915870   -1.015123    1.711681
C     -2.593382    2.794695   -0.488974
C      5.191228    1.119348    0.875026
C      4.683959    1.295110   -1.467643
C     -4.941714    2.810413   -1.950979
C     -0.953559   -0.088831   -0.414981
C     -4.337127   -0.289182   -0.358797
C      3.867405   -0.426249    2.382170
C      2.905844   -0.071895   -2.523546
C     -1.962131    0.006732    0.741139
C      4.180359    0.219298    1.058267
C      3.662648    0.390802   -1.315886
C     -3.407125    1.668393   -0.547949
C     -3.228817    0.378194    0.068101
C     -4.546815    1.669881   -1.255862
C      3.417314   -0.130270   -0.068966
C      1.126014   -1.148932   -0.241766
N      0.404589   -0.117025   -0.036918
N      2.477466   -1.174795    0.120767
N     -5.135871    0.470273   -1.151054
O      0.551850   -2.287860   -0.863373
H     -5.309978   -3.292568    2.168740
H     -4.126757   -2.881410    3.429100
H     -4.669769   -1.625849    2.205264
H      5.139730   -1.688271    3.673958
H      5.773754   -1.384061    1.945663
H      5.914131   -0.147347    3.223830
H      4.574049    1.343778    3.392374
H      3.794178    0.156886    4.431296
H      2.722569    1.222963    3.343496
H      4.359647   -0.262268   -4.203738
H      4.831112   -1.096427   -2.701570
H      3.493332   -1.761781   -3.819830
H      3.573552    1.344715   -4.108875
H      2.469586    2.074569   -2.923423
H      1.875307    0.887941   -4.186097
H     -6.158402   -0.789952   -2.486162
H     -7.125388   -0.170458   -1.099846
H     -6.725309    0.956352   -2.435192
H     -3.127126   -4.251716    1.739254
H     -3.669564   -3.242871    0.409292
H     -1.868707   -2.750638    2.839933
H     -1.159170   -3.010641    1.281134
H     -2.365330    4.828267   -1.164916
H     -4.451059    4.820032   -2.469922
H      6.265632    2.415212   -0.501507
H     -2.524771   -0.643804    2.657513
H     -0.844053   -0.884925    2.274139
H     -1.711782    2.786403    0.121716
H      5.779653    1.395475    1.730880
H      4.893066    1.735403   -2.456482
H     -5.859068    2.779143   -2.509791
H     -1.075699    0.943106   -0.939384
H     -1.213911   -0.769456   -1.192954
H     -4.609829   -1.297385   -0.126648
H      3.102489   -1.132151    2.388159
H      2.007354   -0.576527   -2.409462
H     -1.620850    0.985565    1.237264
H      2.839478   -2.063409    0.595818
H     -0.426067   -2.457590   -0.797450
