52

C      3.800789    1.015062    2.169454
C     -3.113970   -3.570131    0.788127
C     -5.064139    2.450815   -1.419620
C     -3.787526   -2.574336    1.468970
C     -2.017159   -3.262442    0.009243
C     -4.332625    1.511966   -2.089694
C     -4.752748    2.759506   -0.123910
C     -3.329019   -1.271841    1.343735
C     -1.578927   -1.956687   -0.099944
C     -3.272218    0.875809   -1.443200
C     -3.705983    2.134660    0.521058
C      4.874816   -0.013490   -0.181909
C      3.078125   -1.657725   -0.304905
C      4.109837    1.198200   -0.608355
C      2.386213   -0.884880   -1.385542
C     -2.228948   -0.959579    0.562978
C     -2.962823    1.190854   -0.137303
C      3.845240   -0.769757    0.648546
C      2.748700    1.091417    0.007675
C      1.757098    0.346659   -0.850491
C     -0.619683    0.690839   -0.297625
C     -1.824816    0.485539    0.503999
Cl    -1.666437    1.074411    2.166004
N      3.012044    0.286374    1.185578
O     -0.687522    1.442488   -1.299558
O      0.615644    0.119955   -0.047685
Cl     0.687749    0.000000    0.000000
H      3.916694    2.086505    1.900429
H      3.312670    0.983349    3.165971
H      4.813754    0.590610    2.304213
H     -3.465556   -4.594073    0.879443
H     -5.894174    2.937807   -1.949811
H     -4.651548   -2.822929    2.081345
H     -1.504422   -4.063353   -0.515797
H     -4.580519    1.268649   -3.115890
H     -5.320988    3.499883    0.420663
H     -3.876218   -0.489711    1.891913
H     -0.729131   -1.711703   -0.701970
H     -2.712004    0.139304   -1.996375
H     -3.470952    2.381506    1.530053
H      5.193901   -0.660639   -1.004086
H      5.756306    0.230481    0.464900
H      2.359042   -2.316816    0.214852
H      3.842345   -2.301479   -0.808420
H      4.116071    1.405223   -1.678548
H      4.609377    2.084917   -0.117809
H      1.699650   -1.570182   -1.906501
H      3.134187   -0.561921   -2.160878
H      4.301155   -1.410769    1.402172
H      2.373791    2.091715    0.310785
H      1.492609    1.049940   -1.696280
H     -0.687749    0.000000    0.000000
