52

C     -4.097827   -0.468177   -1.727106
C      4.998751   -0.847665    2.805091
C      3.019904    1.303138   -3.503787
C      4.214135    0.264535    2.612887
C      4.724085   -1.959040    2.039747
C      2.445651    1.948831   -2.439064
C      3.205897   -0.059229   -3.461608
C      3.181205    0.248417    1.671185
C      3.716125   -1.962529    1.126384
C      2.046962    1.228488   -1.307484
C      2.819228   -0.761966   -2.362861
C     -4.146667    0.019339    1.879459
C     -3.662863    1.718165    0.112214
C     -3.240181   -1.182706    1.706293
C     -2.302515    1.379032   -0.446865
C      2.907146   -0.855777    0.909467
C      2.238631   -0.116067   -1.283674
C     -4.476413    0.497746    0.458151
C     -2.806854   -0.980302    0.249130
C     -1.782826    0.159587    0.267751
C      0.565107   -0.403102    0.437474
C      1.839487   -0.946187   -0.102674
Cl     1.649831   -2.625606   -0.606605
N     -4.051593   -0.607331   -0.325934
O      0.536168    0.041837    1.601085
O     -0.608305   -0.356335   -0.271263
Cl     0.690845    0.000000    0.000000
H     -4.883559   -1.182331   -2.117694
H     -4.452858    0.534690   -2.090899
H     -3.162102   -0.786520   -2.228004
H      5.812279   -0.887450    3.522444
H      3.333534    1.856929   -4.388991
H      4.418813    1.130991    3.201326
H      5.350278   -2.838463    2.196942
H      2.288150    3.021613   -2.448440
H      3.655531   -0.614890   -4.279738
H      2.600984    1.127320    1.557701
H      3.531340   -2.871501    0.536364
H      1.598605    1.769908   -0.496917
H      2.950778   -1.852779   -2.290436
H     -3.520938    0.810235    2.355095
H     -5.040785   -0.239305    2.441307
H     -3.578874    2.322185    1.039126
H     -4.227204    2.361221   -0.609408
H     -3.836800   -2.111212    1.817671
H     -2.384286   -1.177894    2.392305
H     -2.258190    1.321973   -1.528960
H     -1.625715    2.227837   -0.132239
H     -5.536784    0.746542    0.378417
H     -2.403613   -1.902430   -0.171411
H     -1.560852    0.493193    1.307047
H     -0.690845    0.000000    0.000000
