40

C      5.383668   -1.503065    0.097777
C     -5.022614    0.806377    1.683081
C     -3.832128   -2.111684   -1.996798
C      4.423168   -0.558609   -0.572852
C      4.293797    0.708254    1.552488
C      0.312656    1.402721   -1.007326
C     -1.076833    2.331958    0.787947
C      3.466106   -0.019037    0.495851
C      1.331816    0.473826   -0.418695
C     -1.959378    0.667240   -0.347664
C     -2.873852    1.065889    0.619013
C     -2.327003   -0.369238   -1.166933
C     -4.371235   -0.597600   -0.135940
Cl     3.168898    1.331569    2.790524
N     -2.312717    2.084397    1.300737
N      2.497309    0.888303   -0.069039
N     -4.050327    0.415053    0.688112
N     -3.508147   -1.009290   -1.084068
N     -0.872441    1.460145   -0.218116
O      1.033323   -0.867712   -0.237628
O     -1.515332   -0.740374   -2.042401
O     -5.496022   -1.195702   -0.045511
H      4.821818   -2.125016    0.850177
H      6.183586   -0.936781    0.613602
H      5.876647   -2.200159   -0.610480
H     -5.974145    1.084875    1.183694
H     -5.243950   -0.061734    2.347391
H     -4.680682    1.697667    2.245050
H     -3.302170   -2.999250   -1.593608
H     -4.906968   -2.270266   -2.077052
H     -3.344923   -1.845245   -2.959214
H      4.984116    0.309575   -1.001379
H      3.868724   -1.006312   -1.408847
H      4.835046    1.545036    1.072550
H      4.976765   -0.001024    2.056523
H      0.154100    1.087317   -2.051926
H      0.773016    2.413531   -1.053268
H     -0.434515    3.109788    1.176659
H      2.981555   -0.886097    0.999635
H      1.739266   -1.579324   -0.462064
