44

C     -5.196839    1.574549   -1.077713
C      4.954309    2.377256    0.021134
C     -3.789697    1.319085   -0.605295
C      4.319785    2.050737   -1.309572
C     -3.434320   -1.031679    2.079180
C     -2.332644   -1.502697    1.121258
C     -4.326915   -0.219516    1.170437
C     -1.445990   -0.595054   -1.029380
C      2.291667   -2.082517    0.271179
C     -2.235839   -0.272634    0.222071
C      2.225007   -0.816468   -0.323462
C      0.941153   -0.321984   -0.761998
C      3.357904   -0.053086   -0.493163
C      4.634336   -1.788437    0.512733
N      5.775092   -2.245153    0.905733
N     -0.136162   -1.007289   -0.624135
N      3.506155   -2.506431    0.662341
N      4.526856   -0.563478   -0.069480
N     -3.622377   -0.009294   -0.066457
O      0.856645    0.923775   -1.348560
O      3.235650    1.187662   -1.085086
H     -5.188488    1.665158   -2.198300
H     -5.596751    2.532826   -0.703497
H     -5.871047    0.714536   -0.810445
H      5.926552    1.843337    0.130927
H      5.085738    3.479014    0.162941
H      4.288079    2.048562    0.839502
H     -3.574219    2.041792    0.232528
H     -3.070637    1.477169   -1.415856
H      5.087885    1.573624   -1.972599
H      3.966282    2.990326   -1.750257
H     -2.936232   -0.331995    2.787251
H     -3.934271   -1.874951    2.560153
H     -1.387649   -1.680727    1.661764
H     -2.699878   -2.349222    0.532338
H     -5.244504   -0.855999    1.006107
H     -4.587170    0.763867    1.630845
H     -2.007839   -1.433061   -1.530412
H     -1.460163    0.234013   -1.751477
H      1.403245   -2.662654    0.395752
H     -1.760539    0.526412    0.817805
H      5.816827   -3.188429    1.346464
H      3.615114   -3.459613    1.119582
H      0.025891    1.528668   -1.262880
