41

C      5.681309   -0.844249   -0.644667
C     -4.524633    2.642750    0.135417
C     -4.710127   -2.172391   -0.714839
C      4.402478   -1.352174   -0.061032
C      0.498398   -0.417038   -0.880622
C      3.818391    0.843192    0.995011
C     -0.373886    1.842962   -0.401532
C      3.349963   -0.276730    0.088682
C      1.024544   -0.971600    0.367917
C     -1.865995    0.224170   -0.549745
C     -2.525426    1.412521   -0.274004
C     -2.595138   -0.934183   -0.690235
C     -4.531595    0.243485   -0.296173
N     -1.586310    2.383900   -0.189253
N      2.217123   -0.883115    0.718468
N     -3.858359    1.387406   -0.153327
N     -3.942619   -0.933574   -0.563619
N     -0.571121    0.530789   -0.617750
O      2.761064    1.741821    1.125414
O      0.133510   -1.637341    1.210374
O     -2.036315   -2.024943   -0.939941
O     -5.790119    0.260723   -0.174785
H      6.119636   -1.565988   -1.379029
H      5.575131    0.114469   -1.183938
H      6.432214   -0.775111    0.177068
H     -4.015639    3.507182   -0.354187
H     -4.599653    2.846608    1.221505
H     -5.554868    2.572748   -0.288504
H     -5.670180   -2.108468   -0.193558
H     -4.121705   -3.039096   -0.330542
H     -4.811450   -2.330570   -1.806502
H      3.982315   -2.112804   -0.750970
H      4.549294   -1.848755    0.916171
H      1.226912    0.120064   -1.512890
H      0.141855   -1.266034   -1.506089
H      4.051136    0.464145    2.010895
H      4.728626    1.336133    0.614641
H      0.565256    2.385499   -0.394089
H      3.121510    0.104813   -0.916119
H      2.839460    2.494765    0.467111
H      0.465012   -1.965981    2.121190
