41

C     -3.937819   -2.007233    1.821954
C      5.195046    1.300501   -0.963663
C      2.872848   -2.207278    1.582197
C     -3.330652   -0.625720    1.814326
C     -0.764552    0.685005   -1.384742
C     -3.770876   -0.368956   -0.630902
C      1.157114    1.991122   -2.172929
C     -2.709162   -0.306335    0.455146
C     -1.358673    1.498191   -0.304207
C      1.630633    0.384883   -0.763960
C      2.829401    1.021670   -1.104123
C      1.731378   -0.665347    0.123281
C      4.024974   -0.443746    0.299913
N      2.482867    1.987571   -1.961145
N     -2.216762    1.022497    0.491760
N      3.987169    0.588174   -0.562394
N      2.902644   -1.088826    0.658794
N      0.645470    0.996848   -1.427437
O     -4.790848    0.528026   -0.311131
O     -0.944157    2.851567   -0.175979
O      0.670476   -1.243887    0.436271
O      5.134612   -0.830365    0.795213
H     -3.543268   -2.566481    0.955863
H     -5.043725   -1.921542    1.750699
H     -3.703752   -2.577012    2.732808
H      5.011983    2.376339   -0.691220
H      6.087114    0.894506   -0.481552
H      5.257409    1.294370   -2.078393
H      2.119391   -1.932213    2.372522
H      3.850813   -2.426370    2.005121
H      2.411694   -3.105606    1.076687
H     -2.488263   -0.639985    2.548124
H     -4.046523    0.161009    2.130107
H     -0.974080   -0.373318   -1.259499
H     -1.211458    0.957265   -2.388072
H     -4.145822   -1.381334   -0.809251
H     -3.310430   -0.003196   -1.569590
H      0.603453    2.676962   -2.829974
H     -2.012272   -1.109934    0.255456
H     -4.903754    1.230856   -0.982289
H     -1.399642    3.377325    0.546206
