25

C     -1.409731    0.670506   -1.283465
C      3.510403    0.586935   -0.348168
C      3.222362   -0.751556   -0.156172
C      2.520491    1.539710   -0.224566
C      1.923747   -1.107684    0.161056
C      1.219723    1.151839    0.096214
C     -1.407252   -0.631358   -0.515778
C      0.915354   -0.161747    0.289328
C     -0.432869   -0.639881    0.630965
C     -2.455533   -0.163756    1.461312
N     -3.356742    0.052383    2.345452
N     -2.678729   -0.718532    0.173259
O     -1.081985    0.111111    1.610867
H     -2.226547    0.559871   -2.051971
H     -0.442430    0.878807   -1.781396
H     -1.752093    1.485809   -0.621361
H      4.541597    0.854435   -0.598605
H      3.989540   -1.531301   -0.247946
H      2.748524    2.575118   -0.374224
H      1.732496   -2.169748    0.305281
H      0.466485    1.897271    0.189092
H     -1.237149   -1.501341   -1.181529
H     -0.411295   -1.706735    0.998688
H     -4.340721   -0.169765    2.175803
H     -3.557645   -1.110393   -0.216522
