49

C     -2.407399   -2.370916    1.579953
C     -1.735891   -1.053502    1.348938
C      4.725012    1.769342    0.730150
C      4.844920    0.398157    0.822092
C     -3.367349    0.559502   -1.122096
C      3.501282    2.339768    0.446105
C      3.727231   -0.423305    0.628015
C      0.292066    3.000477   -0.250516
C     -2.868280   -0.825876   -0.791533
C     -2.994614    1.603212   -0.132511
C     -0.996249    2.810314    0.490257
C     -0.551551   -1.773653   -0.747373
C      1.666426   -2.798796   -0.557793
C      0.743055   -1.778472    0.073978
C      2.432945    1.495985    0.263411
C      1.132170    1.794873   -0.019495
C      2.498828    0.116469    0.344172
C      0.475292    0.594358   -0.096797
C     -0.938632    0.554053   -0.378558
C     -1.536102   -0.823210   -0.121183
N     -1.647435    1.566869    0.331877
N      1.277313   -0.439746    0.118506
O      1.988852   -2.501796   -1.865209
H     -2.106188   -2.760269    2.596598
H     -3.512037   -2.272301    1.634780
H     -2.144747   -3.151248    0.868762
H     -2.466910   -0.262419    1.688849
H     -0.845980   -0.925867    1.962814
H      5.617870    2.379607    0.887370
H      5.810019   -0.043687    1.045766
H     -4.480635    0.509805   -1.169602
H     -3.057609    0.850220   -2.168472
H      3.373678    3.400445    0.367780
H      3.876206   -1.482996    0.715866
H      0.042065    3.123988   -1.334853
H      0.783464    3.905759    0.118004
H     -3.658156   -1.339679   -0.177985
H     -2.847649   -1.393557   -1.756153
H     -3.137456    2.602439   -0.640544
H     -3.696743    1.571575    0.750167
H     -1.667388    3.663630    0.212216
H     -0.764825    2.992651    1.581103
H     -0.278683   -1.365089   -1.741108
H     -0.934543   -2.788795   -0.888895
H      2.480216   -3.152318    0.079554
H      0.999801   -3.735166   -0.648549
H      0.564454   -2.123870    1.112786
H     -1.141961    0.740719   -1.476351
H      2.931846   -2.757684   -2.043640
