38

C     -3.785816   -2.333785   -2.473443
C     -4.748137   -0.340929   -1.336282
C      4.198057    3.509229   -0.516739
C      4.274403    0.458500    2.201490
C      3.322684   -0.571399    2.188602
C      4.199980    1.434395    1.256750
C      2.345042   -0.576041    1.232970
C     -2.070974   -0.934422    0.351176
C      0.222754   -0.492074   -0.591791
C     -3.767256   -1.500629   -1.203800
C     -0.728766   -0.195192    0.521768
C      3.228526    1.449151    0.287715
C      2.304923    0.477586    0.252321
N     -2.437135   -0.916945   -1.026469
O     -0.307279   -0.191154    1.786291
O      3.237166    2.517925   -0.664585
O      1.282057    0.412309   -0.657942
H     -2.792422   -2.243019   -3.006621
H     -4.547035   -1.899083   -3.178764
H     -3.984071   -3.397438   -2.338024
H     -4.188355    0.516141   -1.792166
H     -5.561297   -0.620628   -2.029474
H     -5.123494   -0.059168   -0.340893
H      4.285042    3.953454    0.499346
H      3.909887    4.367573   -1.206777
H      5.219243    3.184027   -0.859418
H      5.028419    0.411850    2.966575
H      3.429020   -1.321445    2.952569
H      4.941255    2.249961    1.254969
H      1.661044   -1.386774    1.176747
H     -2.028580   -1.916771    0.836061
H     -2.830976   -0.278930    0.889428
H      0.656424   -1.512524   -0.455766
H     -0.319642   -0.520669   -1.575795
H     -4.010021   -2.132109   -0.342436
H     -1.049124    0.902512    0.301936
H     -2.439856    0.020491   -1.419552
H     -1.025692   -0.523974    2.415525
