49

C     -2.629110   -0.473007   -2.335409
C     -1.676963    0.186478   -1.402017
C      4.956332    0.334274   -1.060714
C      4.632897   -0.986839   -1.291172
C     -3.388780    1.010706    1.161377
C      3.974590    1.151668   -0.542127
C      3.387109   -1.506378   -1.025927
C      1.187348    2.585897    0.699418
C     -2.956780   -0.324149    0.691927
C     -2.292787    2.004567    1.411842
C     -0.252792    2.870847    0.458879
C     -1.177021   -1.797346   -0.088578
C      0.674621   -3.047737    0.905139
C      0.279321   -2.036084   -0.177673
C      2.740797    0.638904   -0.278987
C      1.617269    1.246707    0.231798
C      2.399247   -0.698092   -0.507688
C      0.676698    0.273422    0.285892
C     -0.669206    0.500587    0.768655
C     -1.648454   -0.390217   -0.017507
N     -1.176271    1.819416    0.552632
N      1.123130   -0.881720   -0.148009
O      0.370957   -2.574576    2.172267
H     -2.242751   -1.440172   -2.753474
H     -2.705562    0.196783   -3.242773
H     -3.658479   -0.572399   -1.966353
H     -1.925023    1.268336   -1.361230
H     -0.662318    0.116321   -1.833416
H      5.949765    0.692831   -1.286287
H      5.375789   -1.665648   -1.698808
H     -3.975381    0.921846    2.111111
H     -4.085950    1.458132    0.421658
H      4.179680    2.207777   -0.340885
H      3.146430   -2.546895   -1.211914
H      1.392445    2.726876    1.787631
H      1.819727    3.331976    0.164853
H     -2.870861   -0.992328    1.600068
H     -3.720393   -0.817298    0.055083
H     -2.703201    3.050048    1.319338
H     -1.941231    1.925104    2.464313
H     -0.559869    3.695109    1.153547
H     -0.336185    3.331163   -0.569842
H     -1.702483   -2.270515   -0.971313
H     -1.633451   -2.343332    0.790562
H      0.041832   -3.949794    0.716840
H      1.723357   -3.357577    0.786685
H      0.520221   -2.570836   -1.145441
H     -0.778798    0.217965    1.826874
H      1.200537   -2.520804    2.719158
