48

C     -4.412481    2.504073   -0.956405
C     -3.192498   -3.319864   -0.086721
C      5.235759   -0.038079    0.104320
C     -2.930565   -2.641182   -1.249912
C     -2.854166   -2.756665    1.132077
C      4.420888    1.135794    0.537041
C      4.435874   -1.226149   -0.318103
C     -2.338550   -1.411806   -1.231495
C     -2.258282   -1.514561    1.112498
C      0.067336    0.512071   -0.569896
C      3.021451    1.146371   -0.037138
C      3.100128   -1.219665    0.434435
C      0.990212   -0.040304    0.517442
C     -1.537914    1.360427    1.138739
C     -1.980429   -0.805433   -0.025174
C     -2.975591    1.730215    1.042161
C     -2.158490    1.311029   -1.092192
C     -1.352950    0.511425   -0.098763
N     -3.234860    1.876145   -0.353247
N      2.343233   -0.068692    0.136776
O     -3.830114    1.894956    1.943892
O     -1.949904    1.464971   -2.317633
Cl     0.689093    0.000000    0.000000
H     -5.068875    2.930893   -0.191344
H     -4.025246    3.330519   -1.579881
H     -4.916622    1.802406   -1.644852
H     -3.666188   -4.303405   -0.087817
H      5.891223   -0.336190    0.949083
H      5.887669    0.289697   -0.730691
H     -3.217713   -3.131757   -2.175428
H     -3.064338   -3.300436    2.045365
H      4.898873    2.105474    0.208083
H      4.367167    1.218435    1.646325
H      4.964173   -2.147705   -0.019482
H      4.222674   -1.245151   -1.414611
H     -2.143328   -0.897154   -2.168904
H     -1.990937   -1.065757    2.057664
H      0.131966   -0.129397   -1.469499
H      0.329324    1.580315   -0.805039
H      2.471018    1.949071    0.537023
H      3.079033    1.514302   -1.082320
H      2.616972   -2.179918    0.214794
H      3.365692   -1.226514    1.513107
H      0.883601    0.694621    1.369589
H      0.570920   -0.977482    0.887300
H     -1.281552    0.844038    2.069924
H     -0.913596    2.276018    0.976966
H     -0.689093    0.000000    0.000000
