30

C     -1.626174   -1.525799   -1.365661
C     -2.324148    1.232847   -0.562820
C      3.244739    0.999181   -0.471165
C      3.102192    0.506077    0.808649
C      2.271765    0.733298   -1.392143
C      2.003437   -0.233438    1.136917
C      1.159257   -0.022651   -1.037336
C     -1.457387   -1.103599    0.021497
C      0.988836   -0.527682    0.229404
C     -0.135884   -1.323494    0.690989
C     -1.090904    0.487491    1.581741
N     -1.124032    1.599611    2.239965
N     -1.669632    0.297948    0.300753
O     -0.496354   -0.736344    1.973775
Br     0.760307    0.000000    0.000000
H     -0.810291   -2.202977   -1.673727
H     -2.549573   -2.182184   -1.431040
H     -1.857399   -0.715949   -2.089227
H     -2.931890    1.988564    0.007558
H     -3.065245    0.706993   -1.210250
H     -1.623178    1.744860   -1.268921
H      4.123315    1.587024   -0.722850
H      3.867595    0.710930    1.546657
H      2.379376    1.123497   -2.414225
H      1.951906   -0.596712    2.175862
H      0.436808   -0.187508   -1.819803
H     -2.202756   -1.644175    0.674515
H      0.104111   -2.380372    0.877481
H     -0.668493    1.664560    3.193404
H     -0.760307    0.000000    0.000000
