30

C     -2.238086   -0.091106    1.266497
C     -2.078808    1.052563   -1.497002
C      3.125558    1.293840    0.929005
C      3.289884    0.009617    0.463496
C      1.851845    1.706304    1.231168
C      2.222106   -0.846363    0.300460
C      0.793666    0.841427    1.063803
C     -1.553550   -0.831672    0.210775
C      0.914997   -0.439143    0.605015
C     -0.188776   -1.354702    0.422310
C     -0.492364   -0.995102   -1.786101
N     -0.207495   -0.828695   -3.026220
N     -1.424060   -0.158160   -1.069701
O      0.001315   -1.966608   -0.888946
Br     0.768284    0.000000    0.000000
H      0.483277   -1.483793   -3.473770
H     -1.743167   -0.259843    2.246965
H     -3.261095   -0.558479    1.430640
H     -2.496102    0.968540    1.060525
H     -3.019551    1.166214   -0.921734
H     -1.415546    1.903985   -1.252901
H     -2.374882    1.022079   -2.568662
H      3.969193    1.975890    1.059837
H      4.318457   -0.301205    0.227167
H      1.693383    2.726250    1.604379
H      2.351484   -1.850751   -0.063711
H     -0.168524    1.246323    1.322352
H     -2.177981   -1.753759   -0.037127
H     -0.175176   -2.193652    1.141479
H     -0.768284    0.000000    0.000000
