35

C      5.046447    0.327976    0.499326
C      3.853521    0.445479    0.605191
C     -3.059560   -1.297723    1.139880
C     -1.864086   -1.568313    1.770217
C     -3.025421   -0.484437    0.018125
C     -0.672089   -1.054860    1.313138
C     -1.566138    0.923410   -1.654042
C     -0.152021    0.394896   -1.982754
C      2.367523    0.616952    0.729220
C     -1.853248    0.036997   -0.456559
C     -0.641575   -0.244987    0.195644
C      0.399123    0.477721   -0.535912
N      1.738757    0.069934   -0.456872
C     -1.032664    0.216092    0.007749
O      1.798111    0.535226   -0.212553
O      0.783370   -1.269659    1.295284
O      0.652217   -1.587517   -1.134993
S      0.535007   -0.583808   -0.035730
H      6.076185    0.232948    0.393055
H     -4.027485   -1.692635    1.483092
H     -1.915357   -2.207377    2.653570
H     -3.958608   -0.242691   -0.519128
H      0.253409   -1.300508    1.860740
H     -2.273824    0.722679   -2.454480
H     -1.486243    1.986366   -1.363138
H     -0.207627   -0.675240   -2.248408
H      0.394880    1.041181   -2.662375
H      2.193940    1.698202    0.854313
H      2.089328    0.139063    1.669537
H      0.340824    1.592440   -0.281747
H      1.949344   -0.922193   -0.569636
H     -1.508460    0.136040    1.015641
H     -0.865504    1.295380   -0.226492
H     -1.757089   -0.156159   -0.714071
H      1.395013    1.414406    0.005166
