52

C     -5.375871    3.268481   -0.483560
C      6.499276    0.296033    0.398705
C      6.252076    1.626004    0.654328
C      5.440466   -0.475290   -0.032829
C      4.994736    2.149249    0.481534
C     -2.316314   -2.297586    0.076908
C     -3.652719   -1.581487   -0.121874
C      2.676667   -1.897064   -1.019642
C      1.343635   -1.944146   -1.734660
C     -0.398236    0.855498   -0.037411
C      0.080932   -1.664504    0.291528
C     -1.356705   -1.280544    0.623730
C      4.173883    0.042485   -0.209095
C      2.974449   -0.496728   -0.618991
C     -1.655682    0.037546   -0.093237
C      3.920345    1.373059    0.045180
C      0.592268    0.222199   -1.010678
C     -3.822738   -0.464111    0.892750
C     -2.823306    0.660698    0.591546
C      1.997165    0.496367   -0.614913
C     -3.534512    1.651879   -0.254471
N      2.627707    1.603316   -0.205086
N      0.331474   -1.180103   -1.046981
O     -3.706680   -0.919379    2.190092
O     -3.165806    1.915740   -1.422116
O     -4.642360    2.317343    0.242082
H     -5.354042    3.057459   -1.588717
H     -6.461686    3.156296   -0.206021
H     -5.080292    4.306324   -0.304656
H      7.466294   -0.172129    0.516087
H      7.079277    2.254998    0.997694
H      5.605944   -1.528140   -0.242289
H      4.841861    3.179550    0.688679
H     -1.944753   -2.562926   -0.952773
H     -2.408881   -3.191069    0.693530
H     -3.688623   -1.105038   -1.121893
H     -4.469612   -2.293414   -0.027847
H      2.589399   -2.507643   -0.101949
H      3.441326   -2.291390   -1.713585
H      1.009351   -3.011962   -1.704901
H      1.403273   -1.581692   -2.769086
H     -0.550984    1.911010   -0.342120
H      0.024439    0.790553    0.997991
H      0.740664   -1.121301    1.023005
H      0.207232   -2.753001    0.373798
H     -1.429812   -1.140817    1.706914
H     -1.891706   -0.140171   -1.162375
H      0.448758    0.674468   -2.008218
H     -4.857365   -0.083968    0.761300
H     -2.551338    1.182399    1.534143
H      2.190875    2.560706   -0.082062
H     -3.813748   -1.904054    2.254611
