74

C     -7.466895    3.191203   -0.958751
C      6.611709    2.201111    1.207659
C      6.056081    2.798005   -1.134023
C      7.028481   -0.545166   -2.060471
C      7.513600   -0.953266    0.306560
C     -6.202374   -2.726373   -0.359678
C     -1.349960    3.582437   -1.439019
C     -6.639942    2.021542   -0.411118
C      1.139460    0.532267    0.221964
C      1.364163   -1.764901    0.271922
C      2.522185    0.628686   -0.047860
C      2.681635   -1.696918    0.019011
C     -3.054847   -3.382062   -0.218323
C     -4.311240   -4.095412    0.222235
C     -4.405611    0.351468    0.327368
C     -1.816286    1.171823   -0.210538
C     -4.902372   -2.208615    1.596580
C      5.608512    1.906794    0.050830
C      7.091772    0.091844   -0.695236
C      0.510733   -0.642688    0.387082
C      3.329784   -0.458991   -0.156111
C     -3.346068   -0.446906    0.680608
C     -2.031067   -0.051352    0.416012
C     -3.549107   -1.677823    1.452345
C     -2.524570   -2.690628    1.045135
C     -2.914717    1.968932   -0.556564
C     -4.205729    1.564744   -0.291982
C     -0.901792   -0.938462    0.527002
C      4.763455   -0.465212   -0.372710
N     -1.235023   -2.176364    0.862407
N     -5.330148   -3.191985    0.658553
N      5.696300    0.533699   -0.307492
O      5.276051   -1.652672   -0.691477
O     -2.668751    3.181643   -1.175415
O     -5.304302    2.330252   -0.624190
H     -8.416877    2.821174   -1.414092
H     -7.762596    3.872608   -0.140380
H     -6.901577    3.660742   -1.764197
H      6.603956    1.336384    1.876846
H      6.286474    3.091132    1.775546
H      7.594425    2.435744    0.760143
H      5.673363    2.380822   -2.094530
H      7.154428    2.909858   -1.116714
H      5.626642    3.813612   -1.037491
H      6.033294   -0.441319   -2.541164
H      7.810453   -0.119305   -2.746836
H      7.224579   -1.628095   -1.980175
H      8.524137   -0.732385    0.705469
H      7.564465   -1.928935   -0.209693
H      6.760779   -1.070436    1.114745
H     -7.142742   -2.355562    0.118810
H     -5.738011   -1.990862   -1.027880
H     -6.512646   -3.612348   -0.971838
H     -1.283083    4.596403   -1.859453
H     -0.792210    3.572791   -0.473498
H     -0.803307    2.893806   -2.116766
H     -6.905136    1.147542   -1.054101
H     -6.912744    1.815588    0.643931
H      0.641265    1.454533    0.372258
H      0.922772   -2.751435    0.396540
H      2.936801    1.597698   -0.212572
H      3.284409   -2.611941   -0.054218
H     -3.292809   -2.655990   -1.012249
H     -2.319833   -4.140230   -0.557392
H     -4.027251   -4.726981    1.089170
H     -4.692783   -4.739227   -0.572293
H     -5.441749    0.084605    0.504670
H     -0.873392    1.506889   -0.499095
H     -5.678034   -1.440266    1.681234
H     -4.955604   -2.740412    2.606920
H      4.688325    2.317318    0.380810
H      7.782181    0.935077   -0.621190
H     -3.195913   -1.370236    2.513263
H     -2.497572   -3.479014    1.829971
