74

C     -7.426306    4.442984   -0.414320
C      7.895391    0.441370    0.896752
C      7.464385   -1.166663    2.684379
C      5.388552   -2.898695    0.458885
C      5.863490   -1.224591   -1.278282
C     -5.977369   -2.462254   -2.120297
C     -1.410222    4.617015    1.376450
C     -6.508193    3.255743   -0.575749
C      1.348945   -0.823736   -0.462372
C      0.872927    0.903625    1.001369
C      2.665046   -0.832541   -0.061831
C      2.203850    0.899031    1.407746
C     -2.687549   -3.113532   -1.033225
C     -4.060057   -3.642800   -1.254276
C     -4.375934    1.407155   -0.626595
C     -1.889766    2.042060    0.315523
C     -4.662540   -1.550931   -0.323135
C      6.873121   -0.041102    1.903972
C      5.988011   -1.545762    0.179279
C      0.392856    0.053076    0.055368
C      3.155040    0.017520    0.880390
C     -3.338968    0.481868   -0.658597
C     -2.075634    0.790510   -0.182844
C     -3.677214   -0.832785   -1.231252
C     -2.484421   -1.682049   -1.498137
C     -2.925037    2.983966    0.355604
C     -4.174415    2.672409   -0.115127
C     -0.989829   -0.135456   -0.355450
C      4.502814    0.122326    1.376669
N     -1.249997   -1.235587   -0.987616
N     -5.137336   -2.747502   -0.989084
N      5.685651   -0.516876    1.095163
O      4.673237    1.048926    2.332235
O     -2.681708    4.247459    0.878574
O     -5.220763    3.597283   -0.084371
H     -7.657750    4.888249   -1.424277
H     -6.922512    5.237003    0.194592
H     -8.390751    4.170970    0.065828
H      8.602543   -0.383579    0.674161
H      8.426168    1.315412    1.362028
H      7.430815    0.727755   -0.063702
H      6.760426   -2.000961    2.871079
H      7.842330   -0.856448    3.681991
H      8.352068   -1.636355    2.167158
H      5.127045   -3.436975   -0.477656
H      6.122651   -3.514137    1.007435
H      4.505047   -2.827453    1.138043
H      5.183730   -0.372750   -1.483342
H      5.433347   -2.081174   -1.862069
H      6.819660   -0.966448   -1.772528
H     -6.141965   -1.397113   -2.302502
H     -5.575542   -3.021162   -2.994979
H     -6.986187   -2.908458   -1.920700
H     -1.141724    4.081398    2.295400
H     -1.421572    5.718940    1.497520
H     -0.681917    4.403366    0.567107
H     -6.904031    2.358429   -0.044345
H     -6.378750    3.025654   -1.655455
H      1.034860   -1.542641   -1.233756
H      0.225614    1.569934    1.547691
H      3.345197   -1.538715   -0.506623
H      2.520423    1.606801    2.163915
H     -2.353327   -3.177783    0.021351
H     -1.962874   -3.731077   -1.636438
H     -4.172185   -4.525032   -0.553848
H     -4.207783   -4.088083   -2.261407
H     -5.343573    1.173271   -0.990566
H     -0.948874    2.377682    0.620868
H     -4.133652   -1.876627    0.590610
H     -5.517078   -0.941286   -0.033975
H      6.562394    0.755699    2.597549
H      7.141540   -1.783293    0.269606
H     -4.248245   -0.628096   -2.170876
H     -2.365622   -1.746379   -2.623387
