37

C     -1.194622    3.838889    0.863835
C      4.402967   -0.802570    0.046784
C      3.988019    0.482703    0.277054
C      3.497493   -1.689282   -0.491353
C     -1.793934   -1.707312    1.023670
C     -3.040484   -1.657242    0.142272
C      2.699394    0.837532   -0.032803
C      2.194831   -1.332072   -0.805218
C     -0.538968   -1.654609    0.124469
C     -3.155780   -0.224009   -0.365154
C      1.774659   -0.042353   -0.574924
C     -0.697917   -0.492010   -0.788715
C      0.451448    0.463894   -0.869807
C     -1.293721    1.562331    0.126227
N     -1.908267    2.655723    0.426834
N     -1.824395    0.336633   -0.309570
O      0.085888    1.390759    0.183097
Cl     0.690222    0.000000    0.000000
H     -1.781793    4.750235    0.721678
H     -0.770548    3.725961    1.887042
H     -0.299001    3.918599    0.180422
H      5.432818   -1.107027    0.288708
H      4.671551    1.210172    0.699502
H      3.841459   -2.702863   -0.667615
H     -1.799119   -2.614396    1.642343
H     -1.796126   -0.801198    1.641884
H     -2.939409   -2.351071   -0.723224
H     -3.897545   -1.892152    0.773966
H      2.425173    1.883544    0.174814
H      1.526057   -2.085343   -1.239750
H      0.339546   -1.634603    0.779403
H     -0.632019   -2.619358   -0.462706
H     -3.834875    0.316684    0.333052
H     -3.548280   -0.198466   -1.408573
H     -0.968170   -0.823159   -1.793239
H      0.383669    1.057437   -1.804405
H     -0.690222    0.000000    0.000000
