37

C     -1.489112   -3.634756    0.541976
C      4.163068   -0.085158    0.337672
C      3.114506   -0.582252    1.081937
C      3.914673    0.285734   -0.963788
C     -1.303809    2.539542    0.428482
C     -2.607517    1.891518    0.661206
C      1.851251   -0.695484    0.509912
C      2.667461    0.172725   -1.524872
C     -0.219024    1.694894   -0.147463
C     -2.956332    0.738442   -0.196269
C      1.612512   -0.321923   -0.792626
C     -0.687442    0.627508   -1.086009
C      0.293957   -0.431903   -1.414502
C     -1.448104   -1.412413   -0.274807
N     -2.006341   -2.286356    0.490153
N     -1.794188   -0.058669   -0.468609
O     -0.344940   -1.673034   -1.086115
Cl     0.684208    0.000000    0.000000
H     -1.810959   -4.193660    1.419268
H     -0.384017   -3.558286    0.434230
H     -1.837981   -4.140619   -0.403829
H      5.166342    0.008224    0.781532
H      3.324314   -0.869586    2.102778
H      4.758886    0.675495   -1.531391
H     -1.470212    3.390774   -0.299288
H     -0.938464    3.042406    1.349610
H     -3.449707    2.641286    0.574125
H     -2.663403    1.548643    1.726530
H      1.058857   -1.083444    1.109584
H      2.485146    0.468836   -2.552342
H      0.537928    2.300406   -0.687723
H      0.323402    1.194987    0.680812
H     -3.749467    0.106124    0.267179
H     -3.397590    1.048677   -1.188935
H     -1.098683    1.121069   -2.018230
H      0.384991   -0.469744   -2.544361
H     -0.684208    0.000000    0.000000
