35

C     -1.321470    3.333942   -2.083232
C      3.974801   -0.289357   -0.490526
C      2.832831   -0.177605   -1.253817
C      3.958842   -0.071563    0.861750
C     -1.231355   -2.460993    0.187888
C     -2.657240   -1.965623    0.267005
C      1.658685    0.158033   -0.647278
C      2.745995    0.267493    1.440094
C     -0.350833   -1.581325    1.007957
C     -2.764952   -0.590847   -0.289807
C      1.596209    0.384271    0.698446
C     -0.818926   -0.147895    1.117993
C      0.343851    0.743787    1.354996
C     -1.358944    1.507123   -0.542911
N     -1.764955    2.031370   -1.641091
N     -1.649492    0.280442    0.073516
S     -0.193822    2.325117    0.574437
H     -2.186728    4.009798   -2.282456
H     -0.629314    3.277659   -2.936826
H     -0.757537    3.798764   -1.240304
H      4.914984   -0.561610   -0.998205
H      2.898090   -0.363896   -2.344081
H      4.870173   -0.166364    1.435462
H     -1.207829   -3.499367    0.571223
H     -0.944550   -2.507728   -0.881432
H     -3.285100   -2.664071   -0.319970
H     -2.983509   -2.034106    1.317769
H      0.762148    0.246108   -1.244393
H      2.744633    0.439592    2.523099
H     -0.294152   -2.058675    2.033917
H      0.681222   -1.688583    0.619800
H     -3.751287   -0.159822    0.028824
H     -2.840183   -0.654736   -1.411286
H     -1.451390   -0.134675    2.060951
H      0.461104    0.975343    2.432487
