37

C     -1.493365    3.473259   -0.225401
C      4.613657   -0.394199    0.362981
C      4.122133   -1.533961   -0.228295
C      3.777447    0.692764    0.483481
C     -2.346170   -1.829098    0.977243
C     -3.264438   -0.659869    0.686032
C      2.827238   -1.585260   -0.687354
C      2.468411    0.633490    0.016652
C     -1.330469   -1.855800   -0.169517
C     -2.505235    0.645823    0.610825
C      1.961685   -0.501721   -0.578093
C     -0.436734   -0.650635    0.037824
C      0.560872   -0.550128   -1.072068
C     -0.568524    1.400342   -0.975447
N     -0.640785    2.675610   -1.065993
N     -1.262554    0.532039   -0.087999
O      0.255069    0.630590   -1.787436
Cl     0.691465    0.000000    0.000000
H     -1.580356    3.044645    0.790491
H     -2.507376    3.501396   -0.711013
H     -1.082117    4.499097   -0.105653
H      5.625438   -0.332097    0.729874
H      4.782479   -2.384593   -0.320573
H      4.106667    1.626676    0.942992
H     -2.958147   -2.734663    1.005560
H     -1.851053   -1.608657    1.942809
H     -4.046825   -0.555261    1.449763
H     -3.789155   -0.832560   -0.291381
H      2.406850   -2.469976   -1.159529
H      1.837220    1.500537    0.124943
H     -1.926632   -1.730255   -1.098654
H     -0.752679   -2.806077   -0.154558
H     -3.198730    1.385649    0.175512
H     -2.292199    0.932776    1.671480
H      0.015644   -0.706438    1.036581
H      0.472734   -1.453447   -1.732330
H     -0.691465    0.000000    0.000000
