35

C     -3.443017    2.691683    0.999499
C      4.501395   -1.028665   -0.945673
C      4.014631   -0.619883    0.275680
C      3.798857   -0.826674   -2.111966
C     -1.176720   -1.814815    0.995589
C     -2.344010   -1.499640    0.094383
C      2.766451    0.011071    0.257551
C      2.571166   -0.203770   -2.111052
C      0.058427   -0.978675    0.698915
C     -2.715166   -0.026383    0.124386
C      2.062724    0.214430   -0.900279
C     -0.349234   -0.031097   -0.410956
C      0.762286    0.866432   -0.876487
C     -1.174423    2.025797    0.509111
N     -2.031401    2.874742    0.897098
N     -1.453614    0.712610    0.096094
S      0.614331    2.197127    0.356203
H     -3.760894    2.256706    1.993092
H     -3.877301    3.739130    1.057533
H     -3.938119    2.242642    0.142490
H      5.467541   -1.521439   -0.964771
H      4.568060   -0.780145    1.185737
H      4.213396   -1.162048   -3.056980
H     -0.940635   -2.894961    0.850928
H     -1.519099   -1.706790    2.040765
H     -3.202081   -2.105711    0.529162
H     -2.220835   -1.886922   -0.939843
H      2.428250    0.322013    1.243920
H      2.029865   -0.053335   -3.048950
H      0.200111   -0.321308    1.607189
H      0.911440   -1.608531    0.483757
H     -3.277551    0.122147    1.036882
H     -3.267274    0.160036   -0.819518
H     -0.722493   -0.599761   -1.301419
H      0.444934    1.233987   -1.891169
