35

C     -2.567098    2.789171    0.770763
C      4.139110   -0.239953    1.239340
C      3.007099    0.459455    1.583395
C      4.207552   -0.816320   -0.006836
C     -1.617159   -2.111535    0.108242
C     -2.658573   -1.063160    0.497803
C      1.993705    0.543526    0.647749
C      3.195072   -0.731358   -0.939238
C     -0.270273   -1.381636    0.123359
C     -2.685029   -0.039535   -0.642353
C      2.063913   -0.032587   -0.595499
C     -0.341349   -0.425980   -1.060241
C      0.931817    0.112558   -1.511436
C     -0.917703    1.846218   -0.652715
N     -1.378149    2.822949   -0.033106
N     -1.347530    0.527299   -0.770218
S      0.600972    1.916846   -1.639177
H     -3.509349    2.923857    0.209077
H     -2.677032    1.829668    1.354920
H     -2.571639    3.658697    1.503168
H      4.939556   -0.310304    1.969339
H      2.904752    0.939466    2.570742
H      5.128878   -1.362219   -0.233452
H     -1.815778   -2.348693   -0.960492
H     -1.631174   -2.982099    0.759614
H     -3.649467   -1.502261    0.619797
H     -2.281169   -0.593089    1.431759
H      1.110111    1.110416    0.955135
H      3.310382   -1.208430   -1.905403
H      0.543123   -2.111871    0.019847
H     -0.230465   -0.855536    1.096285
H     -3.478231    0.682347   -0.558900
H     -2.922769   -0.657051   -1.562692
H     -0.756074   -1.080076   -1.892874
H      1.229970   -0.308781   -2.495703
