31

C     -4.317684    0.508025    1.044950
C     -2.046413    1.273988    0.405837
C     -2.447392   -1.045299    0.407127
C     -0.725037    1.040026   -0.000499
C     -1.152246   -1.264323    0.009687
C      2.117022   -0.677970    0.489211
C      1.627300    0.384664   -1.740158
C     -2.903137    0.233564    0.608326
C     -0.247140   -0.229937   -0.207472
C      1.153850   -0.484686   -0.625032
C      2.577681    0.492054    1.211257
N      2.822515   -0.189084   -2.329054
O      2.312550    1.685330    1.043258
O      3.472521    0.228609    2.277477
Cl     0.684005    0.000000    0.000000
H     -5.012843   -0.269145    0.724819
H     -4.617006    1.476206    0.609124
H     -4.288849    0.522376    2.146822
H     -2.400149    2.291760    0.563650
H     -3.125386   -1.862423    0.567908
H     -0.083770    1.898417   -0.157522
H     -0.775858   -2.272844   -0.153913
H      1.653589   -1.393855    1.205926
H      3.003201   -1.224082    0.068400
H      1.829957    1.424802   -1.446983
H      0.846463    0.347400   -2.547357
H      1.090628   -1.533835   -1.101362
H      2.630734   -1.194131   -2.517902
H      3.002252    0.252053   -3.261810
H      4.002647    0.977356    2.705283
H     -0.684005    0.000000    0.000000
