51

C      3.584572    2.297748    0.000365
C     -4.747268   -0.382681   -1.350409
C     -4.105893   -1.709818   -1.693780
C     -2.519383    2.684124    2.964656
C     -4.032097    0.073515   -0.110066
C     -2.802575   -1.753024   -0.927972
C     -2.669784    1.421342    2.547245
C      4.720757   -0.575973   -0.555879
C      3.010511   -0.463857   -2.292578
C      4.006673   -0.646320    0.761683
C      2.062466   -1.306877   -1.537561
C     -1.558001    3.484856    2.407731
C     -2.619145   -0.393770   -0.344727
C      3.917275    0.381097   -1.418365
C      2.710543    0.097027    0.449080
C      1.759519   -0.894358   -0.146627
C     -1.839314    0.957752    1.553820
C     -0.508929   -0.970732    0.823348
C     -1.863245   -0.416404    0.969067
N      3.029107    1.087973   -0.520985
O     -0.182885   -1.998793    1.434605
O     -2.580230   -1.224953    1.842293
O      0.448893   -0.377855    0.008724
S     -0.838638    2.293558    1.196877
H      4.018609    2.864069   -0.867319
H      4.304663    2.162954    0.811397
H      2.730525    2.929472    0.353915
H     -5.838362   -0.503196   -1.127454
H     -4.652078    0.365314   -2.141411
H     -3.918236   -1.748474   -2.780684
H     -4.812418   -2.500683   -1.352420
H     -3.181861    3.115211    3.784382
H     -4.473764   -0.328089    0.826138
H     -4.094063    1.194541   -0.090859
H     -1.951477   -2.010695   -1.606617
H     -2.901472   -2.498438   -0.110472
H     -3.464711    0.748027    3.001165
H      4.750212   -1.585630   -1.018681
H      5.774214   -0.248313   -0.454715
H      3.689899   -1.057333   -2.964506
H      2.496407    0.265856   -2.984496
H      3.763032   -1.713251    1.023275
H      4.559040   -0.200982    1.594708
H      1.086885   -1.323876   -2.108151
H      2.422319   -2.375278   -1.600334
H     -1.224030    4.490488    2.536929
H     -2.143609    0.332302   -1.043790
H      4.536015    1.027408   -2.036416
H      2.294139    0.481471    1.383689
H      1.805668   -1.813941    0.499283
H     -1.958473   -1.732512    2.412898
