54

C     -3.568867   -1.478093   -2.415086
C      3.878045   -2.835883   -0.119718
C      3.330415   -2.210541    1.133776
C      3.375013   -2.142661   -1.368292
C      3.298553    4.093154    1.308715
C      3.265794   -0.711153    1.075642
C      2.156250   -1.272208   -1.028838
C      2.845995    3.231914    0.382820
C     -4.985587   -0.709013   -0.024589
C     -4.005475    1.566671   -0.401959
C     -3.782620   -1.376442    0.583041
C     -2.932645    1.460083    0.612688
C      3.164871    3.745236    2.627128
C      2.726735   -0.130401   -0.173232
C     -4.428236    0.264331   -1.015946
C     -2.641679   -0.869600   -0.278437
C     -2.011303    0.290845    0.449095
C      2.287890    2.080682    0.758341
C      0.438810    0.546039    0.596941
C      1.706070    0.948460   -0.008436
N     -3.250681   -0.404267   -1.505398
O      0.404491    0.083442    1.752240
O      1.461172    1.452441   -1.304812
O     -0.764362    0.659062   -0.076615
S      2.359899    2.124505    2.492480
H     -4.138536   -2.297410   -1.956289
H     -4.141360   -1.030383   -3.255761
H     -2.619939   -1.912339   -2.786648
H      3.504090   -3.880459   -0.161153
H      4.985782   -2.895268   -0.125137
H      2.342403   -2.652946    1.369537
H      4.010269   -2.482886    1.967240
H      4.155607   -1.436665   -1.719610
H      3.161360   -2.837233   -2.194739
H      3.780359    5.081281    1.082041
H      2.645876   -0.387168    1.936985
H      4.292852   -0.263721    1.256292
H      1.746208   -0.886204   -1.964934
H      1.453246   -1.860552   -0.434807
H      2.933750    3.473697   -0.710367
H     -5.635917   -0.243004    0.741972
H     -5.539605   -1.484975   -0.592811
H     -4.912743    2.029180    0.053243
H     -3.729298    2.246476   -1.252965
H     -3.693991   -1.037120    1.640719
H     -3.857094   -2.481701    0.583025
H     -2.291737    2.387668    0.526703
H     -3.370574    1.532995    1.643694
H      3.436148    4.238762    3.568675
H      3.582000    0.268335   -0.789052
H     -5.115788    0.497158   -1.853194
H     -1.880823   -1.635262   -0.429248
H     -1.798542   -0.095083    1.490994
H      2.367449    1.638225   -1.685951
