54

C     -3.445263   -2.046940   -1.905926
C      3.291120   -2.987854    0.729337
C      4.313910   -1.885615    0.883483
C      1.955021   -2.614649    1.300561
C      2.474561    3.774481   -1.958650
C      3.845036   -0.607875    0.180081
C      1.918918   -1.141557    1.571551
C      1.995254    3.135070   -0.885948
C     -4.770647   -0.554937    0.093087
C     -3.916874    1.496560   -0.918879
C     -3.456955   -0.835760    0.767669
C     -2.425976    1.665707   -1.143199
C      3.422874    3.075497   -2.732640
C      2.379278   -0.392556    0.338717
C     -4.317021    0.074326   -1.219919
C     -2.380712   -0.639897   -0.283448
C     -1.743742    0.732095   -0.176691
C      2.384638    1.898150   -0.551840
C      0.513250    1.087134    0.706194
C      1.990413    1.048652    0.548751
N     -3.130847   -0.712193   -1.508402
O     -0.039013    1.472552    1.772350
O      2.588527    1.490074    1.724955
O     -0.355151    0.703132   -0.305163
S      3.562680    1.526838   -1.854408
H     -4.332033   -2.069934   -2.558228
H     -2.580177   -2.450504   -2.487547
H     -3.577549   -2.755322   -1.053198
H      3.231386   -3.275245   -0.333519
H      3.671535   -3.860481    1.283865
H      4.542673   -1.682298    1.929358
H      5.237234   -2.227643    0.383074
H      1.184007   -2.854988    0.539650
H      1.707743   -3.181400    2.210501
H      2.184340    4.813266   -2.288902
H      4.442070    0.207346    0.603626
H      4.043602   -0.790230   -0.905063
H      0.946372   -0.784659    1.943854
H      2.671779   -0.929450    2.365839
H      1.225968    3.664830   -0.232302
H     -5.391063   -1.440806   -0.070901
H     -5.367371    0.221641    0.647145
H     -4.132007    1.779609    0.132166
H     -4.430239    2.151443   -1.654243
H     -3.424571   -1.852750    1.206675
H     -3.313549   -0.050266    1.544169
H     -2.249533    1.369113   -2.207682
H     -2.103601    2.687082   -0.930270
H      3.958856    3.393130   -3.659321
H      1.776079   -0.809107   -0.517181
H     -5.082190    0.001838   -1.997252
H     -1.623435   -1.446390   -0.191204
H     -1.976948    1.105010    0.844245
H      2.107344    2.306732    2.009722
