79

C      1.039869   -3.553761    2.538559
C      7.750752    1.823056   -1.551537
C     -6.845416    3.883177   -0.527376
C      3.240877    3.825710    1.134112
C     -3.589416    1.905642   -3.670761
C      0.514216   -2.202850    2.971821
C      4.197221   -1.603937   -2.303416
C     -4.142695   -0.710571    2.245899
C      2.756093   -1.992682   -2.622994
C     -3.976655   -2.156371    1.750569
C      1.280080   -0.720819    0.522222
C     -1.094195   -0.821624   -0.162259
C      5.358400    0.419346   -1.538358
C     -5.092564    1.142814    0.843321
C      3.169451    1.360417   -0.252468
C     -3.520103    0.500050   -1.244003
C     -1.663535   -2.592235    1.950975
C     -0.504565   -1.638796    2.025836
C      4.193201   -0.310811   -1.558345
C     -4.236339    0.088631    0.993227
C     -0.011059   -1.480073    0.619871
C      3.060718    0.153394   -0.905893
C     -3.430956   -0.242072   -0.072662
C      1.776218   -0.607173   -0.901410
C     -2.468636   -1.375709    0.014235
C      5.450869    1.631048   -0.876517
C     -5.193280    1.904097   -0.338821
C      4.336309    2.110945   -0.221354
C     -4.364914    1.555866   -1.421003
N      2.032559   -1.925522   -1.391659
N     -2.709946   -2.199648    1.102412
O      6.640782    2.361988   -0.864431
O     -6.023082    2.899303   -0.435704
O      4.386455    3.333515    0.461168
O     -4.439008    2.287290   -2.604271
Cl     0.685966    0.000000    0.000000
Cl     0.689372    0.000000    0.000000
H      0.390139   -4.380354    2.907760
H      1.291831   -3.616081    1.481331
H      2.010908   -3.691639    3.098957
H      7.569578    1.777045   -2.652852
H      8.014810    0.795509   -1.173007
H      8.666295    2.426711   -1.407720
H     -7.734889    3.753471    0.185492
H     -7.406114    3.952162   -1.527438
H     -6.485764    4.932355   -0.301715
H      2.804154    3.062912    1.822662
H      3.484340    4.694495    1.763931
H      2.506574    4.151376    0.386399
H     -3.667214    0.813968   -3.886698
H     -3.713745    2.528138   -4.560189
H     -2.542275    2.058712   -3.312690
H      0.003736   -2.361937    3.945958
H      1.351242   -1.507006    3.176365
H      4.685165   -2.407958   -1.729878
H      4.716588   -1.495438   -3.274552
H     -5.069285   -0.665268    2.841113
H     -3.302508   -0.403449    2.879829
H      2.339218   -1.354424   -3.416632
H      2.756110   -3.038932   -2.967777
H     -3.943239   -2.787378    2.656939
H     -4.844661   -2.354512    1.097451
H      2.079098   -1.123088    1.152809
H      1.089243    0.318384    0.881752
H     -1.089793    0.270261    0.128711
H     -0.799187   -0.822875   -1.245216
H      6.238590    0.029494   -2.062137
H     -5.725584    1.393467    1.698665
H      2.320984    1.807512    0.290953
H     -2.875035    0.234817   -2.096936
H     -2.078626   -2.834839    2.967479
H     -1.245124   -3.568215    1.575562
H     -0.791202   -0.642287    2.405175
H      0.149030   -2.510472    0.205064
H      1.052117   -0.080337   -1.557156
H     -2.687595   -1.982431   -0.920254
H      2.604383   -2.423504   -0.663406
H     -0.685966    0.000000    0.000000
H     -0.689372    0.000000    0.000000
