54

C      3.435729    1.258766    2.314664
C     -3.486083    1.554208    2.156557
C     -4.499989    0.668811    1.466254
C     -2.159983    0.890781    2.340712
C     -2.141197   -3.700094   -2.447339
C     -4.055584    0.312799    0.061912
C     -1.978800   -0.169616    1.274801
C     -1.803173   -2.398584   -2.454125
C      4.693000    1.188460   -0.237533
C      3.950596   -1.177858   -0.331973
C      3.404981    1.972180   -0.331526
C      2.746078   -0.995362   -1.169636
C     -2.891214   -4.191464   -1.430850
C     -2.555704    0.394375   -0.010259
C      4.305435   -0.027033    0.560440
C      2.365936    1.043761    0.257046
C      1.866606    0.154246   -0.857876
C     -2.230568   -1.614277   -1.430010
C     -0.542016    0.203297   -1.451943
C     -1.956470   -0.170883   -1.247019
N      3.076570    0.332489    1.279871
O     -0.195682    0.963393   -2.420504
O     -2.673914    0.451806   -2.314673
O      0.510714   -0.210630   -0.653903
S     -3.126326   -2.699703   -0.424576
H      3.535155    0.704802    3.268816
H      4.423421    1.751494    2.137488
H      2.706243    2.102260    2.404143
H     -3.391220    2.515562    1.574850
H     -3.909717    1.838497    3.139075
H     -4.685955   -0.242915    2.050913
H     -5.447974    1.228589    1.401848
H     -1.366884    1.687238    2.228249
H     -2.004478    0.479941    3.360070
H     -1.811365   -4.399515   -3.276811
H     -4.517287    1.081050   -0.628659
H     -4.505460   -0.631536   -0.212875
H     -2.540003   -1.061717    1.621455
H     -0.917774   -0.363835    1.154365
H     -1.179353   -1.941371   -3.279310
H      5.465433    1.773716    0.280974
H      5.029178    0.911827   -1.268015
H      3.884937   -2.085186    0.339175
H      4.870260   -1.386890   -0.956032
H      3.140218    2.221976   -1.384298
H      3.510650    2.920911    0.264138
H      3.068182   -1.008635   -2.253246
H      2.118009   -1.931136   -1.079584
H     -3.290283   -5.174270   -1.191151
H     -2.301792    1.479447   -0.002697
H      5.109744   -0.334038    1.232417
H      1.493437    1.615830    0.623771
H      1.844875    0.819040   -1.772533
H     -2.389141    1.394996   -2.275051
