57

C      4.693874    1.726052   -1.326740
C     -1.662824    3.702467    2.575380
C     -4.867399   -1.651265   -1.304585
C     -2.472891    2.735519    3.117128
C     -0.860305    3.387864    1.516375
C     -3.514764   -2.033615   -1.850865
C     -4.689756   -1.051679    0.096544
C     -2.458481    1.485817    2.587636
C     -0.848527    2.098065    0.973335
C     -2.386802   -1.706593   -0.930243
C     -3.813202    0.188752   -0.127750
C      4.995882   -0.679262   -0.144704
C      3.487687   -1.716405   -1.857359
C      3.996919    0.045564    0.718746
C      2.073121   -1.163356   -1.825792
C     -1.650262    1.126646    1.503850
C     -2.430335   -0.299432   -0.390336
C      4.424570   -0.580796   -1.524490
C      2.931965    0.524756   -0.259280
C      1.919416   -0.566003   -0.420195
C     -0.259997   -0.720235    0.727874
C     -1.644102   -0.236445    0.927524
N      3.715396    0.693303   -1.469681
O      0.149397   -1.687455    1.416383
O     -2.289359   -1.046859    1.892289
O      0.601016   -0.164394   -0.174830
H      4.251004    2.750798   -1.420279
H      5.245104    1.714483   -0.375112
H      5.464493    1.628915   -2.131538
H     -1.647547    4.707838    2.970318
H     -5.295465   -0.837191   -1.925383
H     -5.579633   -2.483143   -1.255718
H     -3.122566    2.956253    3.960434
H     -0.227025    4.170696    1.103918
H     -3.528231   -3.155668   -1.962537
H     -3.385195   -1.640594   -2.882883
H     -5.655528   -0.739775    0.485596
H     -4.152378   -1.795356    0.696829
H     -3.109197    0.739552    3.035204
H     -0.180720    1.970503    0.141820
H     -2.281996   -2.476634   -0.146338
H     -1.438551   -1.774857   -1.539764
H     -4.237774    0.766157   -0.982741
H     -3.930000    0.805756    0.760580
H      5.984714   -0.183604   -0.152488
H      5.150767   -1.718325    0.206906
H      3.687897   -2.159390   -2.854019
H      3.546081   -2.464539   -1.034093
H      4.430723    0.856177    1.306682
H      3.544822   -0.684301    1.405491
H      1.959488   -0.387918   -2.599839
H      1.367229   -1.991467   -1.908446
H     -1.929034    0.408144   -1.081906
H      5.224502   -0.563046   -2.277977
H      2.460010    1.465388    0.059309
H      2.122783   -1.430955    0.270461
H     -1.879014   -0.864910    2.768218
