54

C      4.477195   -1.840292   -1.279712
C     -3.885617    3.767868   -0.669013
C     -2.535567    3.663913   -0.974021
C     -4.629959    2.658928   -0.323492
C     -3.426029   -2.346568    1.995959
C     -2.490346   -3.242207    1.193457
C     -1.990677    2.401395   -0.911185
C     -4.071379    1.395416   -0.264078
C     -2.925260   -0.932746    1.632683
C     -1.767946   -2.343817    0.203040
C      4.362237    0.208393    1.071338
C      3.838014    1.718038   -0.763285
C      3.374240   -0.914769    1.207655
C      2.378603    1.506746   -0.990192
C     -2.735536    1.266831   -0.561327
C     -2.683103   -1.125032    0.185128
C      4.492561    0.400798   -0.411658
C      2.636150   -0.837839   -0.126236
C      1.785045    0.426518   -0.106451
C     -0.667534    0.279456    0.029194
C     -2.006059   -0.028510   -0.557883
N      3.717022   -0.643462   -1.050281
O     -0.529792    0.694684    1.203145
O     -1.890351   -0.430268   -1.886842
O      0.513088    0.122198   -0.698215
H      5.180115   -2.074980   -0.449113
H      3.733684   -2.687504   -1.308194
H      5.018333   -1.763956   -2.227281
H     -4.314634    4.757961   -0.717634
H     -1.956293    4.536279   -1.244578
H     -5.682186    2.737730   -0.085437
H     -3.384153   -2.529478    3.067275
H     -4.433891   -2.471000    1.550790
H     -1.768084   -3.758083    1.875189
H     -3.052865   -3.984264    0.584501
H     -0.922943    2.307669   -1.150658
H     -4.657518    0.521360   -0.004744
H     -3.600500   -0.156480    1.954870
H     -1.932068   -0.870607    2.144550
H     -0.804466   -2.028305    0.666809
H     -1.655252   -2.797758   -0.786348
H      5.320214    0.028784    1.577498
H      3.908838    1.100433    1.578540
H      4.266801    2.109388   -1.728854
H      4.017072    2.479634    0.004289
H      2.607590   -0.732041    1.986090
H      3.860907   -1.900214    1.338908
H      1.766088    2.403506   -0.858204
H      2.209484    1.158709   -2.047400
H     -3.575073   -1.462573   -0.384539
H      5.545837    0.423841   -0.742667
H      2.037140   -1.742058   -0.316588
H      1.659555    0.774261    0.931883
H     -2.730732   -0.205926   -2.356679
