57

C      4.374447   -0.454724    2.561822
C     -2.712815    4.270411   -1.004821
C     -4.263301   -2.695516    0.263060
C     -1.667306    3.782333   -0.249280
C     -3.391417    3.388013   -1.846589
C     -2.807424   -3.024647    0.496873
C     -4.477171   -1.277673    0.775816
C     -1.303102    2.444306   -0.328325
C     -3.000998    2.066108   -1.898399
C     -1.867345   -2.107320   -0.208188
C     -3.669363   -0.360973   -0.076761
C      4.747542   -1.028415   -0.103761
C      4.104724    1.333567   -0.671328
C      3.528988   -1.759188    0.434674
C      2.631350    1.531813   -0.363215
C     -1.959649    1.551917   -1.154106
C     -2.212024   -0.662619   -0.121423
C      4.652016    0.384711    0.389747
C      2.663757   -0.566450    0.870769
C      2.045982    0.114763   -0.245133
C     -0.142603   -0.119235   -1.380160
C     -1.602810    0.125466   -1.264578
N      3.707785    0.258178    1.505265
O      0.403859   -0.648560   -2.375927
O     -2.189053   -0.355566   -2.453481
O      0.694048    0.228305   -0.384587
H      5.175742   -1.141451    2.167070
H      4.917092    0.298319    3.176027
H      3.696171   -0.985857    3.237704
H     -3.014697    5.303765   -0.961470
H     -4.523747   -2.693452   -0.816138
H     -4.881386   -3.390288    0.831549
H     -1.163743    4.492757    0.391679
H     -4.206838    3.735782   -2.445484
H     -2.638514   -4.058043    0.131906
H     -2.653399   -2.952273    1.610396
H     -4.242474   -1.193315    1.851503
H     -5.545321   -1.027094    0.637545
H     -0.493520    2.119506    0.273234
H     -3.577724    1.423576   -2.582339
H     -1.804089   -2.406733   -1.276539
H     -0.853088   -2.250395    0.264773
H     -3.800672    0.672507    0.303079
H     -4.063957   -0.421996   -1.116654
H      5.689471   -1.498190    0.225214
H      4.732118   -1.011763   -1.228119
H      4.660827    2.291407   -0.697063
H      4.172217    0.788716   -1.641462
H      3.755214   -2.416577    1.270179
H      3.009298   -2.335655   -0.350820
H      2.107014    2.124396   -1.113850
H      2.565635    1.955672    0.662823
H     -1.751132   -0.256201    0.815325
H      5.620077    0.801710    0.725026
H      2.047571   -0.938356    1.689260
H      2.408889   -0.373142   -1.203050
H     -1.631152   -1.076335   -2.827675
