48

C     -3.614639    0.661184   -1.943969
C      4.799970   -2.336772    1.688970
C      4.165464   -2.940760    0.615829
C      4.465684   -1.035882    2.003576
C      3.415516    2.458474   -2.757878
C      3.232801   -2.240443   -0.098982
C      3.507186   -0.344257    1.253872
C      2.838312    1.285073   -2.480033
C     -4.782177    0.317101    0.692536
C     -3.158644   -1.565942    0.971807
C     -3.752728    1.381980    1.055266
C     -2.118850   -0.828703    1.737238
C      3.640557    3.323527   -1.731093
C      2.873342   -0.924346    0.194196
C     -3.934538   -0.716837    0.003584
C     -2.573774    1.054115    0.194858
C     -1.516396    0.346977    1.023878
C      2.499339    0.988781   -1.224074
C      0.768269    0.252180    0.284841
C      1.860551   -0.207068   -0.609944
N     -3.030168    0.077896   -0.783158
O      1.028091    1.033083    1.235650
O      1.337274   -1.044627   -1.590132
O     -0.548540   -0.146213    0.118774
S      2.971936    2.356076   -0.320103
H     -2.769867    0.997432   -2.610133
H     -4.114643   -0.155766   -2.513270
H     -4.252984    1.528677   -1.773218
H      5.532202   -2.909204    2.237994
H      4.412723   -3.978288    0.343156
H      4.973638   -0.586091    2.844655
H      3.729392    2.778849   -3.789205
H      2.735199   -2.717229   -0.943176
H      3.303219    0.668352    1.562617
H      2.633018    0.540611   -3.292915
H     -5.323751   -0.062441    1.573490
H     -5.440875    0.789351   -0.066509
H     -3.909094   -1.958891    1.719295
H     -2.777645   -2.449958    0.425833
H     -4.146565    2.405712    0.889855
H     -3.555760    1.285150    2.141299
H     -2.479571   -0.497932    2.752305
H     -1.282284   -1.539775    1.951733
H      4.081076    4.328724   -1.633037
H     -4.500921   -1.386267   -0.654677
H     -2.199930    1.975890   -0.258687
H     -1.075324    1.023574    1.786177
H      2.054907   -1.285078   -2.229089
