57

C      4.439629   -0.250009    2.239128
C     -2.581858    3.992902    2.093777
C     -3.868698   -2.481938   -0.589870
C     -2.766010    2.760861    2.670329
C     -2.062041    4.065169    0.834939
C     -4.195412   -1.331460    0.344692
C     -3.492472   -1.977093   -1.968558
C     -2.446708    1.593590    2.028582
C     -1.730502    2.884775    0.164791
C     -3.968946   -0.016332   -0.328036
C     -2.316340   -1.011774   -1.889436
C      5.098753   -0.488586   -0.743610
C      3.386190   -2.307390   -0.561598
C      4.364467    0.814420   -0.537419
C      2.543101   -1.384934   -1.375521
C     -1.918360    1.668730    0.749255
C     -2.644219    0.140607   -0.992938
C      4.451594   -1.484242    0.169412
C      3.174654    0.378709    0.294786
C      2.134074   -0.131145   -0.665274
C     -0.236310    0.528529   -0.544924
C     -1.575190    0.416084    0.028655
N      3.722663   -0.669543    1.097955
O      0.002489    1.334278   -1.465522
O     -1.542128   -0.622542    0.968591
O      0.855251   -0.229709   -0.127198
H      3.828349   -0.465240    3.148264
H      5.364749   -0.878758    2.350227
H      4.709469    0.822683    2.261339
H     -2.850227    4.886320    2.643167
H     -3.042686   -3.115474   -0.206195
H     -4.758247   -3.129944   -0.728727
H     -3.181584    2.723885    3.674386
H     -1.916852    5.025719    0.381693
H     -3.692667   -1.458409    1.308411
H     -5.299777   -1.377553    0.580402
H     -4.360680   -1.516648   -2.475176
H     -3.181283   -2.840403   -2.567933
H     -2.577569    0.609591    2.449974
H     -1.329975    3.039437   -0.834510
H     -4.124950    0.779612    0.428899
H     -4.749783    0.063596   -1.134177
H     -2.109895   -0.686039   -2.934072
H     -1.442113   -1.594925   -1.535051
H      4.996176   -0.870736   -1.783769
H      6.142995   -0.356040   -0.443822
H      2.746202   -2.739937    0.245250
H      3.836208   -3.057576   -1.214621
H      4.977687    1.578371   -0.024001
H      4.025964    1.181725   -1.527629
H      3.059615   -1.201007   -2.342536
H      1.598860   -1.944135   -1.632933
H     -2.710719    1.060732   -1.639248
H      5.164518   -2.110738    0.708891
H      2.751263    1.219165    0.845348
H      2.067049    0.663529   -1.469357
H     -0.767765   -0.502758    1.572518
