48

C      3.332778   -2.153882   -1.251181
C     -3.842536   -1.972452    2.652637
C     -4.155059   -0.659172    2.936846
C     -2.993730   -2.286422    1.617452
C     -3.854268    0.973409   -3.041237
C     -3.615252    0.343022    2.181303
C     -2.463610   -1.254443    0.871849
C     -3.756252    1.131930   -1.715676
C      4.123688    1.201348   -0.396343
C      3.494647   -0.392050    1.426751
C      3.025776    1.293041   -1.438661
C      2.022124   -0.703683    1.252595
C     -2.721876    0.725219   -3.766925
C     -2.765237    0.058068    1.142525
C      4.138830   -0.266141    0.055072
C      2.232131    0.018634   -1.113145
C      1.514956    0.282911    0.192416
C     -2.562049    1.049026   -1.101660
C     -0.721709    1.265373    0.451420
C     -2.190338    1.181671    0.326920
N      3.296137   -0.857738   -0.894770
O     -0.154522    2.302338    0.907509
O     -2.728529    2.387808    0.771361
O      0.112345    0.242460    0.087624
S     -1.453338    0.723709   -2.447434
H      3.824432   -2.804843   -0.481461
H      2.344794   -2.616900   -1.464972
H      3.942044   -2.328041   -2.181907
H     -4.275256   -2.769728    3.257280
H     -4.829907   -0.408808    3.760100
H     -2.777297   -3.331276    1.431405
H     -4.823675    1.029858   -3.624998
H     -3.860030    1.363466    2.405127
H     -1.798487   -1.511310    0.061548
H     -4.675528    1.337877   -1.090247
H      3.961170    1.884758    0.455979
H      5.077419    1.458469   -0.912103
H      3.559287    0.553135    2.000974
H      4.025118   -1.201074    1.979122
H      2.360092    2.160842   -1.264967
H      3.426307    1.243530   -2.456755
H      1.978575   -1.710756    0.770430
H      1.456309   -0.635281    2.176582
H     -2.511886    0.560200   -4.817558
H      5.173330   -0.643293    0.042393
H      1.542825   -0.243953   -1.931497
H      1.761899    1.290310    0.619808
H     -2.196645    2.688837    1.558468
