46

C     -2.238371   -2.086918   -0.615630
C     -0.409758   -2.911768    2.178270
C      4.522297    0.826871   -0.122866
C      3.594760    1.510931    0.853800
C     -1.664097    2.369271    1.030877
C     -2.996257    2.546444    0.826453
C     -0.454208   -0.838202   -1.849258
C      0.985668   -1.180601   -1.773034
C      0.382991    0.977657    0.776813
C     -3.177328    0.443964   -0.248528
C      2.262155    0.704884   -1.281946
C      3.198063    1.548965   -0.540742
C     -1.067488    1.174610    0.573361
C     -3.753541    1.600341    0.194495
C     -1.818257    0.226971   -0.057251
C      0.943720   -0.349905    0.473916
C     -0.131394   -1.448489    0.466699
C     -1.166342   -1.021998   -0.522513
N      1.703492   -0.465586   -0.724071
O     -5.099594    1.832597    0.013759
O     -0.658533   -1.611201    1.748849
H     -1.771394   -3.094845   -0.656261
H     -2.936440   -1.950408    0.219265
H     -2.805026   -1.949693   -1.564589
H     -0.810176   -3.094022    3.199141
H      0.674083   -3.138701    2.121506
H     -0.923635   -3.645704    1.508460
H      4.509075   -0.288029   -0.209787
H      5.469777    1.298152   -0.427078
H      3.256081    0.853101    1.646654
H      4.071086    2.450489    1.272122
H     -1.016969    3.086828    1.526470
H     -3.437070    3.484121    1.191376
H     -0.627051    0.184100   -2.252368
H     -0.941715   -1.528601   -2.568255
H      1.189154   -2.253650   -1.666203
H      1.455452   -0.867527   -2.747512
H      0.865783    1.760879    0.128164
H      0.576729    1.310822    1.833713
H     -3.738734   -0.340435   -0.756378
H      1.434421    1.346308   -1.721654
H      2.770311    0.349515   -2.255177
H      3.437426    2.539315   -1.065002
H      1.558177   -0.652979    1.388887
H      0.342946   -2.378238    0.127217
H     -5.560266    2.670365    0.325837
