34

C     -3.341619   -0.190185   -0.896890
C     -1.956503   -2.134472   -0.215310
C     -2.925018   -0.576088    1.457084
C      2.808005   -0.815579    1.203755
C      1.764015   -0.445794    0.377884
C      3.874380    1.245179    0.810795
C     -0.486725    0.281477   -1.214530
C      3.883885    0.011158    1.442535
C      1.753086    0.790725   -0.256386
C      2.832877    1.617466   -0.015522
C      0.661477    1.230005   -1.153497
C     -2.287556   -0.695493    0.065578
Cl     2.849719    3.184408   -0.800223
N     -1.163718    0.187534    0.056107
O      4.923658   -0.389125    2.282345
O      0.250277    2.536707   -0.811200
H     -4.369582   -0.286757   -0.494494
H     -3.306448   -0.722066   -1.873469
H     -3.150921    0.901938   -1.102787
H     -1.854918   -2.284488   -1.317061
H     -2.840915   -2.743270    0.083980
H     -1.091419   -2.497865    0.351094
H     -2.802883    0.472240    1.784107
H     -2.344613   -1.202284    2.170532
H     -3.987806   -0.881804    1.386535
H      2.824244   -1.784058    1.702004
H      0.923839   -1.109474    0.201356
H      4.709412    1.913016    0.983262
H     -1.181865    0.580266   -2.032120
H     -0.125230   -0.723901   -1.488527
H      1.083533    1.336414   -2.195723
H     -1.506137    1.134468    0.326489
H      5.739701   -0.879083    1.974360
H     -0.158232    2.938785   -1.613616
