34

C     -2.886225    0.865597   -1.311601
C     -3.970939   -1.003858   -0.167629
C     -2.738166    0.785171    1.105748
C      3.253014    1.621704    0.207461
C      2.059849    0.892840    0.134354
C      4.457825   -0.365335   -0.253553
C     -0.335377   -0.257806   -0.094505
C      4.437512    0.984668    0.013045
C      2.080400   -0.444407   -0.128780
C      3.300182   -1.095492   -0.328957
C      0.819638   -1.223770   -0.193087
C     -2.756776   -0.080355   -0.151510
Cl     3.260601   -2.819888   -0.668338
N     -1.604466   -0.898703   -0.178660
O      5.620498    1.689097    0.082019
O      0.794436   -2.187314    0.814482
H     -2.556388    1.892988   -1.030454
H     -3.990411    0.981212   -1.513832
H     -2.452273    0.498247   -2.242452
H     -4.879753   -0.489537   -0.528758
H     -3.716069   -1.838696   -0.858312
H     -4.113319   -1.463045    0.835772
H     -3.663481    1.415526    1.084740
H     -2.701030    0.197098    2.032377
H     -1.859376    1.438993    1.021150
H      3.225260    2.672429    0.418721
H      1.170471    1.456086    0.296712
H      5.408646   -0.870278   -0.409762
H     -0.230797    0.519607   -0.842730
H     -0.267190    0.190716    0.926267
H      0.826056   -1.766701   -1.174707
H     -1.671910   -1.839390    0.227808
H      5.657107    2.675558    0.274807
H      0.022451   -2.132962    1.400937
