72

C      2.107325    0.617749    0.142013
C     -8.961308   -1.238752   -1.691388
C     -8.357063    2.838650    2.061255
C      9.965082   -0.209657    0.180951
C      7.073284    3.814101   -0.640275
C     -0.417442   -0.764820   -0.701035
C     -4.130167   -0.980317   -1.070695
C      1.003099   -1.177981   -0.910715
C     -1.007018   -1.326056    0.576279
C     -3.378751   -1.706454    0.022839
C      5.121542   -2.599281   -0.521984
C     -6.419569   -0.509534   -0.824742
C     -6.066631    1.489648    1.020001
C      7.334140   -1.000842   -0.223677
C     -3.697268    1.397247    1.125611
C      5.347006    0.776030   -0.710190
C      2.985335   -1.634879    0.354934
C     -5.167103   -0.155506   -0.403072
C     -4.932337    0.843612    0.523703
C      6.006710   -1.450640   -0.423109
C      4.014321   -1.650783   -0.747012
C      5.015114   -0.584552   -0.662744
C     -7.523447    0.137747   -0.324840
C     -7.336238    1.148998    0.608956
C      7.654134    0.314453   -0.268277
C      6.636668    1.263737   -0.520979
C     -2.631518    0.383211    1.297740
N      1.909433   -0.776632    0.110149
N     -2.378934   -0.852138    0.644085
O     -1.771015    0.654435    2.197486
O     -8.795765   -0.192217   -0.726590
O     -8.444279    1.802885    1.114043
O      8.942969    0.730515   -0.072740
O      6.901826    2.544612   -0.572858
Cl     0.683515    0.000000    0.000000
H      2.929069    0.968770    0.780341
H      1.193447    1.175716    0.525821
H      2.239871    1.025641   -0.903877
H     -8.573002   -0.971281   -2.677729
H    -10.040955   -1.433355   -1.780839
H     -8.454234   -2.146176   -1.258800
H     -8.000904    3.763062    1.538373
H     -9.355351    3.008180    2.520032
H     -7.605879    2.615914    2.842428
H      9.864967   -0.555405    1.223587
H      9.901582   -1.043800   -0.550608
H     10.942231    0.333396    0.038265
H      6.244364    4.380392   -0.084094
H      8.036128    4.235905   -0.212688
H      6.954936    4.242943   -1.694690
H     -1.028498   -1.148107   -1.543339
H     -0.515020    0.336178   -0.625200
H     -4.614089   -1.757844   -1.694368
H     -3.463172   -0.351837   -1.709112
H      1.315419   -0.780301   -1.911649
H      1.019841   -2.297123   -1.007663
H     -0.471957   -0.868558    1.444173
H     -0.960108   -2.417748    0.552389
H     -4.119167   -2.074777    0.739854
H     -2.867254   -2.561764   -0.468705
H      5.329418   -3.238058   -1.407585
H      4.999106   -3.199987    0.424141
H     -6.577935   -1.309199   -1.564475
H     -5.901126    2.274648    1.746746
H      8.078979   -1.791404   -0.029980
H     -3.939804    1.808181    2.135223
H     -3.276361    2.229098    0.515442
H      4.540727    1.479124   -0.922337
H      3.458850   -1.416390    1.346729
H      2.578775   -2.682362    0.438447
H      3.534975   -1.778260   -1.743985
H     -0.683515    0.000000    0.000000
