29

C      0.246225    1.879281   -1.136761
C     -3.969860   -0.601780    0.143457
C     -2.993067   -1.049701    1.006402
C     -3.635091    0.404983   -0.737251
C     -1.707401   -0.515666    1.002955
C     -2.349315    0.941873   -0.743542
C      3.115173   -0.811802    1.396682
C      3.815384   -1.094500    0.086074
C      0.006909    1.054730    0.127983
C     -1.376101    0.490197    0.121710
C      1.942092    0.053322    1.284892
C      1.066009   -1.039169   -0.765522
N      1.002033    0.004155    0.193666
O      1.744000    0.904542    2.217679
S     -0.202232   -1.398361   -1.673572
S      2.575127   -1.955742   -0.959799
H      1.344824    2.001174   -1.212678
H     -0.183427    1.393517   -2.014084
H     -0.218295    2.869095   -0.966870
H     -4.980830   -1.020790    0.145220
H     -3.279560   -1.841043    1.688903
H     -4.408918    0.749827   -1.410745
H     -0.955336   -0.866576    1.673501
H     -2.114154    1.724430   -1.438611
H      2.786380   -1.775315    1.839258
H      3.856052   -0.366227    2.064364
H      4.057702   -0.141631   -0.402528
H      4.665356   -1.741596    0.293057
H      0.150322    1.748772    0.971854
