38

C      0.695022    2.325744    0.329855
C     -4.100161    0.317693   -0.041042
C      2.429937   -2.137737   -0.375809
C      3.666466   -1.628605   -0.624587
C     -0.630854    0.949742   -1.186360
C     -2.069915    1.178464   -0.886506
C      0.052627   -1.910189    0.071652
C      2.736485    0.589055   -0.484054
C     -0.391563    0.301314    1.219791
C     -2.176244   -0.975520    0.202846
C     -0.840396   -1.084463    0.915860
C      1.350375   -1.291077   -0.181807
C      3.830686   -0.261128   -0.680981
C      1.483281    0.079497   -0.231883
C      0.274488    0.910032   -0.003998
N     -2.641834    0.373596    0.137106
O      5.098438    0.260809   -0.936195
H      1.587892    2.272211    0.983959
H      0.973804    2.863913   -0.603649
H     -0.084208    2.894117    0.835814
H     -4.358888    0.260142   -1.124802
H     -4.609782    1.139993    0.480242
H     -4.468357   -0.626171    0.413461
H      2.287746   -3.210169   -0.328978
H      4.520055   -2.308913   -0.777777
H     -0.533699    0.070962   -1.864507
H     -0.292122    1.821934   -1.821426
H     -2.640821    0.970193   -1.834052
H     -2.275395    2.246398   -0.660734
H     -0.400234   -2.137373   -0.940904
H      0.172486   -2.927551    0.522416
H      2.891737    1.638677   -0.532992
H     -1.269842    0.923838    1.471515
H      0.377419    0.274930    2.013511
H     -2.898481   -1.620442    0.741232
H     -2.124280   -1.366425   -0.842061
H     -0.970645   -1.596309    1.914447
H      5.348778    0.418818   -1.909133
