40

C      3.851869    0.827620    0.343714
C     -2.712494   -1.969943   -0.333544
C     -1.595774    2.564243    0.155322
C     -1.483345   -2.172114   -1.182834
C     -0.107214    2.367388    0.354506
C      2.618143    1.302472    0.420692
C      4.156497   -0.622876    0.435960
C     -3.005118   -0.480474   -0.314960
C     -2.283368    1.406384    0.844812
C      0.496863   -1.790210    0.276842
C     -0.363540   -1.249984   -0.850911
C      0.320068    1.062419   -0.272271
C      1.396525    0.474919    0.605252
C      2.924993   -1.425197    0.215464
C     -0.798969    0.167211   -0.595161
N     -1.868964    0.133720    0.367790
N      1.626544   -0.914504    0.364241
O      3.102338   -2.637955   -0.126083
H      4.708566    1.500669    0.206587
H     -3.547386   -2.512090   -0.783601
H     -2.455809   -2.290672    0.695404
H     -1.870454    2.519974   -0.910190
H     -1.921926    3.484442    0.664420
H     -1.781813   -2.016074   -2.249960
H     -1.146154   -3.218533   -1.028872
H      0.388891    3.248034   -0.115038
H      0.097586    2.423850    1.428143
H      2.492541    2.376363    0.342909
H      4.532501   -0.842586    1.446285
H      4.935736   -0.937817   -0.289522
H     -3.034370   -0.157267   -1.381586
H     -3.960679   -0.244754    0.178837
H     -2.063355    1.436978    1.952486
H     -3.376265    1.582621    0.771555
H      0.789712   -2.821507   -0.018483
H     -0.069335   -1.810326    1.236592
H      0.314697   -1.210830   -1.752697
H      0.837290    1.342700   -1.237792
H      1.120869    0.581131    1.697728
H     -1.265898    0.522576   -1.562034
