56

C      5.541983   -2.132419   -2.305550
C      0.123929   -2.290507    0.151177
C      4.819669   -1.455951   -1.176070
C     -7.462908    0.223906   -0.199215
C      4.147891    0.758467    2.953664
C     -6.671685    0.238179   -1.318192
C     -6.978003    0.712749    0.976963
C      3.529252   -0.463575    2.893911
C      4.198840    1.531964    1.810015
C     -5.373485    0.754303   -1.243517
C     -5.681893    1.225486    1.041381
C      2.950506   -0.951086    1.719592
C      3.629910    1.054780    0.651666
C     -3.489323    1.779976   -0.062615
C      0.894522    1.202201   -1.079431
C     -2.492793    0.693568    0.263416
C     -0.588263    1.526820   -0.989444
C     -0.317644    0.086698    0.862024
C      0.016288   -0.883063   -0.251093
C     -4.866135    1.252423   -0.065017
C      2.993655   -0.191789    0.575303
C      1.133666   -0.292855   -1.049510
C      3.429253   -1.196271   -1.543039
N     -1.146745    1.140881    0.279771
N      2.465033   -0.553951   -0.676899
O      3.011017   -1.540120   -2.676410
H      6.638639   -2.186943   -2.152729
H      5.157422   -3.176640   -2.434760
H      5.341418   -1.624277   -3.269814
H     -0.760332   -2.864333   -0.187452
H      1.002326   -2.820671   -0.325133
H      0.213753   -2.492204    1.229103
H      4.802943   -2.184972   -0.320663
H      5.377916   -0.559502   -0.825813
H     -8.478739   -0.170106   -0.218867
H      4.603613    1.146741    3.870991
H     -7.053739   -0.147478   -2.246675
H     -7.610922    0.696171    1.852864
H      3.464628   -1.098866    3.753114
H      4.685865    2.494832    1.856617
H     -4.804078    0.731591   -2.177765
H     -5.320769    1.602167    1.965661
H      2.481874   -1.903755    1.691151
H      3.695785    1.674904   -0.226992
H     -3.267214    2.148094   -1.079811
H     -3.383866    2.568945    0.711156
H      1.360229    1.743594   -0.233516
H      1.264730    1.662188   -2.010600
H     -2.689090   -0.124709   -0.458428
H     -2.699321    0.241452    1.271793
H     -1.070025    1.107006   -1.867519
H     -0.655049    2.631764   -1.055103
H      0.588313    0.581379    1.235150
H     -0.841724   -0.414659    1.702813
H     -0.868232   -0.836204   -0.976967
H      1.007110   -0.656323   -2.131899
