43

C     -0.277652    2.806320   -0.089826
C     -3.403948   -1.917100   -1.371705
C     -4.681577   -1.470623   -1.626688
C     -2.594261   -1.161804   -0.569891
C     -5.114802   -0.287879   -1.077108
C      3.369904   -0.813891   -0.575887
C      4.426158   -1.412342    0.326670
C     -1.020011    0.914830    1.349234
C     -3.323281    1.932433    1.042595
C      0.038245    1.348835    0.362096
C     -2.388079    0.934026    0.811422
C     -3.010883    0.027302   -0.009915
C      1.977464   -1.002352   -0.012827
C     -4.311381    0.472203   -0.275008
C      5.766425   -1.181259   -0.306102
C      1.001285   -0.398597   -0.941889
N      1.928098   -0.540270    1.320470
N     -4.462351    1.646958    0.391557
N      0.213887    0.565240   -0.770919
O      6.813569   -1.584292    0.243306
O      5.877081   -0.516090   -1.513923
O      0.939980   -1.005027   -2.247385
H      0.605074    3.095926   -0.711435
H     -1.227224    2.840337   -0.628455
H     -0.271868    3.465987    0.803450
H     -3.106106   -2.853068   -1.825199
H     -5.354201   -2.031476   -2.252068
H     -1.585515   -1.514828   -0.360779
H     -6.124092    0.094116   -1.260243
H      3.549014    0.271051   -0.688417
H      3.410258   -1.297334   -1.569774
H      4.313257   -2.509363    0.404337
H      4.471963   -0.940041    1.309524
H     -0.910829    1.621282    2.225956
H     -0.759392   -0.073471    1.779636
H     -3.136201    2.804191    1.661718
H      0.984282    1.494000    0.942013
H      1.789078   -2.123969    0.022939
H      2.712524    0.007622    1.677741
H      1.406291   -1.112000    1.988411
H     -5.353431    2.192279    0.359433
H      6.695149    0.051927   -1.756643
H      0.128099   -0.839785   -2.826201
