28

C     -2.385499    0.634546    0.852542
C     -2.877954   -0.368550   -0.149464
C      3.191219   -1.061851    0.579679
C      1.833127   -0.971101    0.399770
C     -0.938714    0.318664    1.197702
C      4.001497    0.059340    0.460208
C     -1.999147   -0.430341   -1.365017
C      2.108220    1.369411   -0.018998
C      1.292423    0.263965    0.096775
C     -0.159897    0.415297   -0.106081
N      3.442528    1.231330    0.167201
N     -0.634815   -0.661992   -0.945879
Cl     0.686145    0.000000    0.000000
H     -2.444935    1.660322    0.440572
H     -2.956834    0.533516    1.794249
H     -2.948036   -1.366610    0.343190
H     -3.892015   -0.062713   -0.491565
H      3.651050   -2.007157    0.817075
H      1.196644   -1.859606    0.495104
H     -0.869859   -0.731252    1.543053
H     -0.534165    1.036553    1.938851
H      5.068566   -0.055096    0.609904
H     -2.116881    0.522777   -1.930222
H     -2.303858   -1.292002   -1.992097
H      1.664914    2.342942   -0.259871
H     -0.390648    1.416737   -0.525431
H      0.003070   -0.937130   -1.693068
H     -0.686145    0.000000    0.000000
