52

C     -1.482742    3.695725    0.442618
C      2.606743    1.241249   -0.481969
C      3.468489   -0.692466    1.340475
C      4.438195   -0.726773   -0.778615
C     -1.801401    2.213552    0.049249
C     -2.450486   -1.960626    3.143488
C     -2.216153   -1.243992   -3.764915
C     -1.376737   -1.159262    3.454782
C     -2.899577   -2.143620    1.863236
C     -2.914104   -0.462149   -2.880040
C     -0.950756   -1.608379   -3.428579
C     -0.748738   -0.521373    2.363696
C     -2.253000   -1.496348    0.811005
C     -2.362138   -0.050569   -1.684849
C     -0.397057   -1.185978   -2.212988
C      0.935669   -0.559849    0.137431
C      2.107276   -0.195947   -0.602745
C     -1.190785   -0.697640    1.087681
C     -1.074177   -0.394721   -1.303667
C     -0.511117    1.464695    0.211069
C     -0.435087    0.032219   -0.029309
N      3.236652   -0.996759   -0.026222
O     -0.064895    1.875751    1.502584
H     -1.775082    3.795422    1.485253
H     -0.433318    3.911560    0.249224
H     -2.174112    4.334894   -0.142720
H      2.350259    1.750156    0.428020
H      3.751025    1.235629   -0.485321
H      2.264940    1.798324   -1.373285
H      2.930181   -1.332808    2.065762
H      4.562749   -0.893643    1.538692
H      3.312310    0.359224    1.628885
H      4.911314   -1.730716   -0.993251
H      5.203969   -0.169119   -0.199730
H      4.241905   -0.268306   -1.769130
H     -2.611509    1.921260    0.712847
H     -2.075253    2.330332   -1.036766
H     -2.947173   -2.460949    3.979471
H     -2.644471   -1.575051   -4.715833
H     -1.023524   -1.017313    4.470558
H     -3.752119   -2.783499    1.640186
H     -3.933404   -0.174580   -3.159737
H     -0.382909   -2.223830   -4.107461
H      0.100383    0.074521    2.693193
H     -2.641726   -1.696640   -0.182008
H     -3.026606    0.491994   -1.047218
H      0.576573   -1.564797   -2.015458
H      0.754174   -1.680769   -0.025773
H      1.225831   -0.576715    1.245300
H      2.219239   -0.459220   -1.686087
H      0.195169    2.061788   -0.456433
H     -0.842890    2.116108    2.045407
