37

C     -1.639708    3.078170    0.713512
C      4.522070    0.058435    0.995474
C      4.267879    0.652317   -0.222683
C      3.520966   -0.689176    1.584682
C     -2.607175   -1.935167   -0.794061
C     -3.037714   -1.137666    0.407053
C      3.044158    0.486368   -0.807668
C      2.284970   -0.863204    1.004955
C     -1.193023   -1.720958   -1.189187
C     -2.627917    0.318479    0.301578
C      2.027666   -0.276033   -0.203580
C     -0.434168   -0.796074   -0.260577
C      0.786293   -0.354717   -0.957707
C     -0.458060    1.506396   -0.558701
N     -0.576075    2.732590   -0.203036
N     -1.262883    0.420574   -0.153322
O      0.505984    0.972489   -1.436478
Cl     0.686891    0.000000    0.000000
H     -1.548308    4.199985    0.842300
H     -2.645051    2.916710    0.335882
H     -1.444239    2.692169    1.742032
H      5.486483    0.188821    1.457247
H      5.057479    1.249276   -0.700190
H      3.682761   -1.171448    2.541985
H     -3.319955   -1.715600   -1.640619
H     -2.760149   -3.008491   -0.557367
H     -2.659795   -1.612846    1.322429
H     -4.150512   -1.177977    0.438484
H      2.887062    0.969229   -1.762646
H      1.510087   -1.447638    1.468279
H     -0.605513   -2.661490   -1.248083
H     -1.159699   -1.259126   -2.197493
H     -3.357766    0.767191   -0.431092
H     -2.742094    0.733774    1.313834
H     -0.351976   -1.173364    0.751507
H      0.997925   -0.941997   -1.896742
H     -0.686891    0.000000    0.000000
