55

C     -3.240067    3.187560   -0.483124
C     -4.139117   -2.046553   -3.109272
C     -2.597439   -0.512627    3.793295
C     -2.995318    1.739740   -0.755173
C      6.584781   -0.911207    0.684739
C      6.153375   -2.030124    1.395708
C      5.694688   -0.083230    0.027797
C      4.806700   -2.306962    1.437462
C      2.984160    1.409379   -1.274855
C      1.846645    2.149578   -0.557111
C     -0.345058   -0.748306    0.221739
C     -0.557823    1.988624   -0.540091
C     -3.508441   -1.698653   -0.813878
C     -1.729808    1.225420   -0.058159
C      4.355180   -0.392634    0.092378
C      3.217603    0.189218   -0.424668
C     -1.624224   -0.241144   -0.415082
C     -2.754093   -1.038446    0.048312
C      3.885446   -1.504484    0.794414
C      0.775981   -0.033096   -0.539537
C      2.101814   -0.512300   -0.070433
C     -3.092507   -1.138682    1.458214
N      2.538426   -1.546371    0.677022
N      0.691306    1.352273   -0.508366
O     -4.066424   -1.826649    1.851565
O     -3.178471   -1.597767   -2.157975
O     -2.353491   -0.479396    2.418804
H     -3.887202    3.358921    0.390201
H     -2.298275    3.772075   -0.388112
H     -3.786741    3.618658   -1.365820
H     -5.080034   -1.475024   -3.009519
H     -3.784179   -1.884759   -4.147123
H     -4.300629   -3.137602   -2.923840
H     -2.115394    0.366087    4.279634
H     -3.698150   -0.408897    3.953863
H     -2.219836   -1.473006    4.251422
H     -3.887399    1.162749   -0.457125
H     -2.862511    1.615130   -1.858746
H      7.631304   -0.692301    0.649746
H      6.877146   -2.668510    1.906276
H      6.000398    0.780396   -0.523909
H      4.450319   -3.170055    1.983323
H      2.710912    1.126977   -2.295526
H      3.895705    2.036852   -1.323624
H      1.631101    3.087164   -1.132163
H      2.232649    2.368772    0.460573
H     -0.219548   -1.837367    0.080489
H     -0.298180   -0.439577    1.281492
H     -0.490446    2.938971    0.066738
H     -0.765606    2.344979   -1.584256
H     -4.365190   -2.305174   -0.480364
H     -1.895645    1.333184    1.016826
H     -1.492409   -0.360996   -1.511460
H      0.655700   -0.389793   -1.605479
H      1.908316   -2.261014    1.092756
