52

C     -1.026082   -2.800306   -2.570432
C      2.113416    0.507204   -1.850284
C      3.698096   -0.688673    0.075294
C      4.083146    1.689290   -0.152280
C     -0.469014   -2.261836   -1.258929
C     -2.357627    3.710226    0.089636
C     -2.441844   -1.977755    3.488328
C     -1.269350    3.508733    0.891920
C     -2.854290    2.719153   -0.698420
C     -1.403224   -1.095271    3.684189
C     -2.845951   -2.260310    2.205692
C     -0.656840    2.262194    0.902361
C     -2.226700    1.462754   -0.679624
C     -0.772728   -0.498645    2.585563
C     -2.213756   -1.662335    1.111275
C      0.938853   -0.010762    0.385684
C      1.864621    0.791517   -0.411664
C     -1.141300    1.247553    0.115669
C     -1.157092   -0.765596    1.303522
C     -0.920712   -0.838559   -1.105152
C     -0.502554   -0.129221    0.100557
N      3.211539    0.640132    0.216600
O     -0.646588   -0.185180   -2.304058
H     -1.395264   -3.844720   -2.448251
H     -0.331952   -2.754026   -3.407014
H     -1.925580   -2.191404   -2.852147
H      1.979171   -0.510882   -2.192650
H      3.198016    0.804021   -2.127199
H      1.552703    1.236655   -2.512515
H      4.756254   -0.698447   -0.256815
H      3.085098   -1.245094   -0.660197
H      3.571417   -1.210648    1.046614
H      3.481686    2.521865   -0.595162
H      4.509433    2.134769    0.794489
H      4.948760    1.413837   -0.769065
H      0.649013   -2.244263   -1.457145
H     -0.723952   -2.965905   -0.484527
H     -2.828225    4.703874    0.096536
H     -2.915236   -2.428649    4.353316
H     -0.857686    4.286762    1.528262
H     -3.708797    2.875339   -1.329424
H     -1.031934   -0.825017    4.656677
H     -3.649160   -2.940964    2.024594
H      0.210108    2.097452    1.528225
H     -2.698983    0.750085   -1.346839
H      0.007913    0.180363    2.807026
H     -2.615135   -1.937563    0.161559
H      1.358764   -1.066591    0.406181
H      1.067415    0.294516    1.445718
H      1.629447    1.904059   -0.376106
H     -2.056806   -0.938503   -1.175439
H     -0.270508   -0.765231   -2.984152
