64

C     -6.161300    1.646513   -1.967592
C     -8.136896    0.653672   -0.824782
C     -2.674529   -3.937296    2.155163
C     -1.343283   -4.166468    2.359161
C      7.584514    2.641145   -1.428301
C      8.263549    2.010915   -0.204220
C     -0.782336    0.099476   -0.770634
C     -2.121219    0.359045   -0.203864
C     -3.086062   -2.811404    1.444214
C     -0.439133   -3.270163    1.850226
C      4.596586   -0.121935    1.023137
C      3.453508   -0.894034    1.205932
C      6.505185    1.635337   -1.720944
C      7.096200    1.454950    0.586282
C      0.213324    0.017392    0.405159
C     -3.967840   -0.177236    1.226264
C      4.140445   -0.037318   -1.288209
C     -6.817029    1.380460   -0.643723
C     -2.929513   -0.791523    0.269820
C      4.950869    0.315035   -0.235080
C     -2.206337   -1.892944    0.921809
C      2.645327   -1.244561    0.148642
C      2.988572   -0.815816   -1.103912
C     -0.865879   -2.168746    1.150687
C     -4.760768    0.791589    0.452089
C      1.427847   -2.064109    0.362889
Cl     1.986880   -1.264197   -2.460478
N     -5.965678    0.480854    0.120330
N      6.141924    1.107673   -0.434676
N      0.224188   -1.424087    0.683843
O     -4.280823    2.025110    0.057623
O      1.502305   -3.309733    0.256223
H     -5.133770    1.254273   -1.969538
H     -6.764242    1.243893   -2.819259
H     -6.052414    2.764646   -2.069341
H     -8.793269    0.755916    0.059461
H     -8.705652    1.080183   -1.693453
H     -7.977849   -0.440278   -0.972296
H     -3.374799   -4.652712    2.561098
H     -0.986635   -5.051232    2.920559
H      7.110020    3.607911   -1.152762
H      8.315837    2.745564   -2.262376
H      8.862324    2.723361    0.360150
H      8.865233    1.160218   -0.605202
H     -0.457734    0.978819   -1.362863
H     -0.732421   -0.810454   -1.406781
H     -2.047972    1.125106    0.573464
H     -2.724126    0.836106   -1.048317
H     -4.176440   -2.752242    1.340915
H      0.602053   -3.411720    2.028100
H      5.241343    0.162216    1.837869
H      3.188778   -1.228941    2.199255
H      6.901919    0.778507   -2.329869
H      5.637767    2.089561   -2.249286
H      6.634212    2.210676    1.235120
H      7.383589    0.588590    1.218173
H      1.208069    0.386515    0.107440
H     -0.164992    0.526095    1.302657
H     -3.391048    0.410487    2.006262
H     -4.637659   -0.895624    1.677895
H      4.384628    0.284144   -2.274439
H     -6.996010    2.307498   -0.062137
H     -3.510731   -1.209110   -0.573965
H     -4.890605    2.853202    0.030390
