57

C      3.028085   -0.229391   -3.380852
C      5.135119   -2.937751   -1.002020
C     -6.248354    1.221765    2.060855
C      4.620399    1.740238    3.319127
C      2.622319    0.860368   -2.805641
C     -5.602301   -2.628052    0.609588
C     -4.393746   -2.917758    0.006526
C     -5.847265   -1.362169    1.100649
C     -2.108694    1.424420    0.359502
C     -1.388244    1.950408   -0.848435
C      0.779770   -0.346240    0.160768
C      0.879088    1.859289   -1.411801
C      4.099411   -1.230258    0.366202
C      2.135277    1.046184   -1.417492
C     -2.502167    0.018750    0.098340
C      2.111714   -0.173295   -0.589174
C      3.234116   -0.235943    0.394800
C     -3.389234   -1.961777   -0.129067
C     -0.270266   -0.194556   -0.916267
C     -4.861107   -0.401835    0.974200
C     -3.642605   -0.710934    0.360978
C     -1.572174   -0.774260   -0.539877
C      3.407506    0.793930    1.411875
N     -2.155867   -1.985854   -0.661548
N     -0.334059    1.145226   -1.327532
O      2.615713    1.772167    1.494918
O      3.979760   -2.238493   -0.582520
O     -5.010774    0.900894    1.435932
O      4.440755    0.746516    2.326335
H      3.358252   -0.164924   -4.440342
H      3.091827   -1.228056   -2.956140
H      4.882447   -3.694321   -1.745342
H      5.606804   -3.484690   -0.137067
H      5.869562   -2.236913   -1.440652
H     -6.512310    0.500440    2.859879
H     -7.085789    1.198362    1.328006
H     -6.253613    2.226540    2.507435
H      5.322297    2.497589    2.884937
H      5.116926    1.280127    4.183752
H      3.684530    2.264274    3.549032
H      2.641380    1.782504   -3.437822
H     -6.393639   -3.357726    0.723565
H     -4.233117   -3.915652   -0.366728
H     -6.795214   -1.100389    1.584228
H     -3.050373    2.025648    0.465167
H     -1.551239    1.550081    1.297119
H     -2.141850    2.133492   -1.664234
H     -1.000381    2.956925   -0.587385
H      0.719401    0.406516    0.948590
H      0.776376   -1.390416    0.529463
H      0.869662    2.451731   -2.369583
H      0.895884    2.626752   -0.607025
H      4.919543   -1.259882    1.098087
H      2.922604    1.723421   -0.954327
H      2.170590   -1.071583   -1.228621
H      0.103973   -0.813150   -1.785783
H     -1.696706   -2.802611   -1.106576
