57

C     -3.019654    3.148871    1.179265
C     -2.909714   -0.717096   -4.483402
C     -3.018717   -2.231835    2.459931
C     -3.130801    1.762213    0.521138
C      6.404625   -1.396596    0.216998
C      6.061209   -2.282814   -0.783787
C      5.445824   -0.501424    0.658927
C      4.795025   -2.248325   -1.302361
C      2.837611    1.390704    1.340300
C      1.513723    2.070931    1.058170
C     -0.395041   -0.551507   -0.633492
C     -0.805173    1.383985    1.171063
C     -3.458140   -0.746853   -2.154424
C     -1.755100    1.413376    0.011642
C      4.173018   -0.461540    0.142648
C      3.048804    0.300546    0.384857
C     -1.669408    0.277185   -0.922522
C     -2.802146   -0.646919   -0.984405
C      3.840492   -1.342409   -0.848225
C      0.712079    0.467052   -0.473635
C      2.063961   -0.165913   -0.492241
C     -3.233194   -1.463544    0.128981
N      2.571172   -1.162212   -1.228156
N      0.543240    1.048116    0.827800
O     -4.215189   -2.233636   -0.026447
O     -3.060798    0.011791   -3.265182
O     -2.631234   -1.449751    1.348594
Cl     0.691728    0.000000    0.000000
H     -2.791455    3.069706    2.243254
H     -4.004959    3.674260    1.100736
H     -2.298343    3.749486    0.602058
H     -2.598026   -0.073609   -5.315816
H     -3.863082   -1.254266   -4.710677
H     -2.160118   -1.519028   -4.270571
H     -3.063857   -3.293486    2.075481
H     -4.016701   -2.001980    2.843477
H     -2.256262   -2.246289    3.253537
H     -3.508046    1.104992    1.303138
H     -3.872200    1.886917   -0.292473
H      7.394707   -1.413165    0.632501
H      6.778205   -2.999976   -1.159917
H      5.695809    0.200387    1.441760
H      4.517055   -2.944953   -2.092534
H      2.726519    0.915172    2.356958
H      3.674987    2.109084    1.392895
H      1.212692    2.743316    1.902161
H      1.679067    2.710790    0.145554
H     -0.557985   -1.019136    0.358946
H     -0.216413   -1.279244   -1.427029
H     -0.756811    2.405454    1.623412
H     -1.120640    0.696476    1.980059
H     -4.291031   -1.427933   -2.195435
H     -1.444220    2.351860   -0.572528
H     -1.460715    0.666548   -1.968616
H      0.663668    1.204953   -1.294915
H      2.031682   -1.688731   -1.968835
H     -0.691728    0.000000    0.000000
