36

C      5.390315   -1.890382    0.677841
C     -4.465983   -2.058535    0.809419
C     -5.228828   -0.997738    0.381695
C     -3.107869   -1.972776    0.617133
C     -4.655818    0.094184   -0.209443
C      3.409089   -0.733121   -0.229805
C     -1.081041   -0.568359   -0.286435
C      0.804979    1.747604    0.522051
C      4.556623   -0.679457    0.426575
C     -2.510457   -0.858515    0.012490
C     -3.268626    0.199921   -0.414608
C     -1.052270    0.783270   -0.900109
C     -0.375204    1.798894   -0.051168
C      2.844990    0.646777   -0.298642
C     -2.447953    1.275661   -1.025366
C      4.838121    0.699328    0.834058
C     -1.321453    2.904923    0.019232
O      5.867047    1.060318    1.479065
O     -1.056786    4.123637    0.274129
O      1.608973    0.646690    0.382057
O      3.781492    1.455340    0.375036
O     -2.601629    2.439297   -0.238066
H      6.285495   -1.575861    1.245934
H      5.648153   -2.298065   -0.325276
H      4.770177   -2.616312    1.246328
H     -4.925784   -2.913496    1.273514
H     -6.305132   -1.052875    0.527882
H     -2.498621   -2.798678    0.948447
H     -5.250438    0.949039   -0.556363
H      2.940018   -1.604930   -0.651511
H     -0.754618   -1.328206   -1.021578
H     -0.515837   -0.652003    0.660509
H      1.138569    2.581264    1.106174
H     -0.495215    0.790321   -1.871899
H      2.759146    0.952525   -1.358797
H     -2.723627    1.450315   -2.085188
