40

C      4.854299   -1.789984    0.608506
C     -0.075298    1.422137    1.865457
C     -0.945086    2.572407   -0.757319
C      4.008197   -1.495508   -0.048351
C     -1.760435   -1.850062    1.065048
C     -3.090651   -1.596674    1.196725
C      0.181379    0.574606   -1.839447
C      3.062688   -1.161332   -0.758197
C      1.558306    0.242044   -1.917079
C      0.488995   -1.234676    0.258008
C     -2.795159    0.501602    0.077519
C      0.642160    1.216387    0.542255
C     -0.928702   -0.945263    0.449648
C     -3.623647   -0.359780    0.675444
C     -1.454008    0.253987   -0.055372
C      1.410095   -0.047074    0.453838
C     -0.387666    1.178109   -0.585228
N      2.311610    0.072463   -0.706177
O     -4.958066   -0.309519    0.925378
H      5.936633   -2.155599    1.472779
H      0.605215    1.198406    2.680357
H     -0.252540    2.522284    1.921082
H     -1.013850    0.856967    1.956987
H     -0.108607    3.308033   -0.806994
H     -1.657280    2.806755    0.060015
H     -1.429848    2.574384   -1.742756
H     -1.317461   -2.812693    1.456325
H     -3.689793   -2.357665    1.611002
H     -0.505631   -0.229821   -2.180007
H     -0.020839    1.401193   -2.610574
H      3.066077   -1.507090   -1.903764
H      2.214870   -2.025607   -0.453074
H      1.781074   -0.641844   -2.574959
H      2.184602    1.087011   -2.463790
H      0.779769   -2.088993    0.980949
H      0.498554   -1.690589   -0.742977
H     -3.189133    1.488448   -0.277836
H      1.302101    2.085432    0.404140
H      2.035998   -0.271653    1.327833
H     -5.718922   -0.791228    0.434605
