70

C      1.647701   -2.074262   -4.160597
C     -5.507923    1.364906    0.087286
C     -5.076809   -0.356647   -1.484474
C      6.711463   -0.225495    1.534060
C     -0.480910   -0.517446    3.701674
C      0.277364    0.617191    3.838934
C     -1.077583   -0.812271    2.467648
C      0.463512    1.484033    2.764686
C      3.213578    1.498706   -0.340916
C      2.090446   -0.587788    0.036784
C      4.371822    1.012440    0.246641
C      3.234608   -1.074569    0.621553
C     -4.045086   -0.347143    0.682786
C     -2.834820   -1.186597    0.510737
C      0.843063   -0.935881   -3.636838
C      2.093988    0.703137   -0.440873
C      4.377253   -0.276129    0.728231
C     -0.908574    0.013416    1.417384
C     -0.138456    1.150618    1.586362
C     -0.016028    0.405868   -1.737920
C      0.887322    1.315593   -1.075517
C     -1.139923   -0.222359   -1.061912
N     -4.451932    0.463817   -0.441477
N     -1.606893   -0.472138    0.252865
O      0.196669   -0.147149   -4.398124
O     -1.965569   -0.702237   -1.924287
O      5.479075   -0.844343    1.328803
O      0.756044   -0.681618   -2.293699
S      0.162039    2.339578    0.250769
C     -0.474874   -0.402732   -0.254452
C      0.484978    0.516797    0.474662
C     -1.879508   -0.073869    0.004677
C      1.841689    0.073721    0.125025
O      0.324890    1.835052    0.109221
O     -2.260660    0.862215    0.745462
O     -2.854447   -0.847549   -0.608726
O      2.633845    0.859345   -0.414710
O      2.227476   -1.214587    0.399119
H      2.636716   -2.133287   -3.660919
H      1.087705   -3.037124   -4.044137
H      1.803428   -1.932752   -5.235568
H     -6.239750    1.572438   -0.706190
H     -5.042365    2.258493    0.528871
H     -5.998544    0.826756    0.938274
H     -6.166834   -0.051016   -1.530250
H     -4.964524   -1.423870   -1.276012
H     -4.562398   -0.102810   -2.431281
H      7.446378   -0.743428    0.863444
H      6.761097    0.836544    1.265780
H      7.071845   -0.419231    2.589658
H     -0.636738   -1.199196    4.520637
H      0.731810    0.854637    4.770071
H     -1.650511   -1.686659    2.405486
H      1.044015    2.372596    2.835439
H      3.254616    2.513561   -0.704430
H      1.200902   -1.174639   -0.068387
H      5.234034    1.656133    0.311671
H      3.214374   -2.103170    0.999189
H     -3.889129    0.417405    1.512022
H     -4.907107   -1.002398    0.977566
H     -3.048000   -1.651526   -0.549153
H     -2.789908   -2.108413    1.066617
H     -0.434550    0.913901   -2.662400
H      1.287996    2.089797   -1.776571
H     -0.285739   -1.430253    0.139113
H     -0.189505   -0.391325   -1.319145
H      0.370613    0.433783    1.577071
H      0.820714    2.403642    0.729109
H     -3.792168   -0.953697   -0.278600
H      3.032697   -1.670543   -0.014878
