46

C     -4.070729    3.743119   -1.651546
C      4.297759    3.760052    1.011181
C     -3.537395    2.328449    0.360581
C     -2.968933    1.551225   -1.801843
C      3.173984    1.637105    1.564629
C      3.465737    2.214144   -0.746747
C     -3.013372    1.178743    0.920919
C     -2.442879    0.400277   -1.258272
C      2.554006    0.473891    1.201090
C      2.839386    1.038982   -1.114617
C     -3.521445    2.526847   -0.998099
C      3.626718    2.501231    0.599284
C     -2.471219    0.228474    0.090583
C      2.389025    0.179336   -0.149950
C     -0.827424   -3.145643    0.476485
C      0.621792   -3.150483    0.028368
C     -1.523130   -4.319948   -0.057295
C      1.398006   -4.322328    0.489035
C     -1.915829   -0.987292    0.667446
C      1.724310   -1.068110   -0.504723
O     -1.361058   -5.498095    0.314369
O     -2.473196   -4.152870   -1.087930
O      1.150076   -5.521354    0.238983
O      2.549723   -4.141385    1.298122
O     -1.921952   -1.187047    1.916989
O      1.566757   -1.350439   -1.703355
O     -1.368425   -1.951881   -0.140985
O      1.262585   -1.948983    0.450050
H     -3.214254    4.346768   -2.003335
H     -4.746315    4.295250   -0.968593
H     -4.629582    3.377950   -2.562296
H      5.389034    3.606169    0.878255
H      4.005373    4.535366    0.273240
H      4.011054    4.000825    2.035041
H     -3.968619    3.092061    0.975110
H     -2.950132    1.693799   -2.865277
H      3.305015    1.871555    2.594590
H      3.826724    2.902612   -1.470519
H     -3.033295    1.037275    1.991176
H     -2.025429   -0.327461   -1.920770
H      2.189931   -0.220708    1.949057
H      2.706328    0.800887   -2.162737
H     -0.960158   -3.060038    1.546220
H      0.614513   -3.150840   -1.070670
H     -2.616561   -4.920232   -1.738661
H      2.893495   -4.897253    1.879354
