40

C      6.195882   -0.065466   -0.556749
C      5.439402   -1.183364   -0.778855
C      5.547460    1.106857   -0.241083
C      4.042696   -1.132154   -0.686530
C     -0.933079   -2.149978   -0.642697
C      3.508214    2.326135    0.165566
C     -2.311731   -2.115226   -0.555280
C      2.145322    2.378509    0.256232
C      1.221394   -1.064586   -0.508553
C      4.170399    1.143108   -0.153437
C     -0.155066   -1.031425   -0.421671
C      3.375506    0.031079   -0.371946
C     -2.872102   -0.898073   -0.233980
C      2.001232    0.052442   -0.287992
C      1.365385    1.254588    0.034041
C     -2.117798    0.232988   -0.008687
C     -0.725815    0.182208   -0.100645
C     -4.342767   -0.770734   -0.117222
C     -4.592839    0.097847    1.108250
C     -2.739616    1.513472    0.329235
C     -4.107562    1.476278    0.805841
N      0.024573    1.286609    0.118605
O     -4.973222   -2.000313    0.069217
O     -5.934040    0.065551    1.488815
O     -3.876641    1.870467   -0.512108
H      7.298065   -0.097522   -0.627622
H      5.930931   -2.107523   -1.026573
H      6.139963    1.990733   -0.065156
H      3.465241   -2.019242   -0.864091
H     -0.488345   -3.102875   -0.894582
H      4.119027    3.194020    0.336651
H     -2.894688   -3.009079   -0.734120
H      1.655724    3.322069    0.508455
H      1.649116   -2.016676   -0.759248
H     -4.704351   -0.242727   -1.012256
H     -3.969925   -0.326364    1.929759
H     -2.090182    2.407947    0.420286
H     -4.483694    2.336943    1.429009
H     -4.861471   -2.320838    0.978340
H     -6.120600   -0.615685    2.182784
