28

C      4.453251    1.367481    2.370469
C     -2.288369    0.909941    0.368010
C      3.478267    0.688471    2.075527
C     -1.454116   -0.309490   -2.896327
C     -0.283148   -0.860769   -2.070086
C     -2.291919    0.486275   -1.914122
C      1.511639    0.285040    0.652881
C      2.014111   -1.210675    2.465053
C      0.133073   -1.550080    1.061581
C      2.312468   -0.093125    1.723963
C      0.391556   -0.437857    0.289007
C     -0.405094    0.001474   -0.835994
N      0.912840   -1.909290    2.096260
N     -1.836646   -0.009192   -0.624312
H      5.305166    1.939104    2.620176
H     -3.309160    1.316572    0.159334
H     -1.602489    1.791023    0.350246
H     -2.291743    0.517838    1.396441
H     -1.063006    0.407288   -3.654758
H     -2.026240   -1.111956   -3.378282
H     -0.430648   -1.933607   -1.871020
H      0.660193   -0.620165   -2.557898
H     -3.364232    0.227760   -2.048960
H     -2.096153    1.574746   -1.972761
H      1.813434    1.175734    0.120445
H      2.632301   -1.514672    3.302323
H     -0.717042   -2.163269    0.843874
H     -0.158291    1.035400   -1.159747
