28

C      4.588615    1.926642    0.990918
C     -2.855336   -1.040699   -1.094613
C      3.771185    1.078797    0.768866
C     -1.933568    1.252934    0.227300
C     -1.102966    1.153242   -1.039129
C     -1.781917   -0.103295    0.832588
C      1.631055    0.405734   -0.129504
C      2.991375   -1.272180    0.817677
C      0.927413   -1.833418   -0.064482
C      2.804794    0.041719    0.494188
C      0.663228   -0.511985   -0.426252
C     -0.612875   -0.245908   -1.081023
N      2.067192   -2.186583    0.541109
N     -1.642392   -0.976641   -0.326200
H      5.320047    2.696495    1.179927
H     -3.291392   -2.062870   -0.989903
H     -3.635813   -0.338617   -0.760825
H     -2.606959   -0.832213   -2.176107
H     -3.006889    1.445138    0.013641
H     -1.587781    2.069837    0.880825
H     -0.359934    1.942013   -1.125893
H     -1.811942    1.299959   -1.906917
H     -2.649102   -0.394590    1.468844
H     -0.828256   -0.132018    1.382884
H      1.463872    1.421849   -0.390702
H      3.928616   -1.540208    1.311655
H      0.194854   -2.617639   -0.273094
H     -0.645123   -0.645496   -2.136371
