42

C      6.753976    0.059575   -0.388373
C     -1.638237   -2.605982   -1.861497
C     -2.953196   -2.409192   -1.531224
C     -3.431238    1.480871    2.483618
C     -0.691348   -1.673271   -1.523570
C     -3.322713   -1.244164   -0.843741
C     -3.809156    0.608836    1.321828
C      2.003726    0.228297   -1.676922
C      1.929357   -0.510133    0.566112
C      3.323071   -0.184460   -1.791820
C      3.250703   -0.930541    0.471663
C     -2.232690    2.256891    2.031001
C     -0.514017    0.958799    0.958596
C      1.293970    0.072935   -0.506928
C      3.950383   -0.765630   -0.716235
C     -1.074324   -0.530144   -0.845523
C     -2.385013   -0.299666   -0.497926
C     -0.090919    0.526947   -0.447191
C     -2.809665    0.915102    0.225629
N     -1.749345    1.655883    0.813275
S      5.653116   -1.298929   -0.862809
H      7.769237   -0.147235   -0.778953
H      6.828239    0.066408    0.716910
H      6.389180    1.023017   -0.796191
H     -1.317653   -3.508303   -2.399834
H     -3.678090   -3.157371   -1.808224
H     -4.274040    2.174658    2.729474
H     -3.131361    0.896171    3.389771
H      0.342173   -1.782868   -1.759002
H     -4.361094   -1.153097   -0.617412
H     -3.755650   -0.483387    1.571918
H     -4.838589    0.850309    0.933211
H      1.545919    0.686098   -2.560733
H      1.356989   -0.623472    1.474534
H      3.882775   -0.064635   -2.706553
H      3.731976   -1.387510    1.329412
H     -2.558024    3.295216    1.787500
H     -1.438534    2.335338    2.818592
H      0.227027    1.644213    1.402288
H     -0.578202    0.045997    1.568963
H     -0.299433    1.394899   -1.131584
H     -3.299288    1.583528   -0.542051
