87

C      8.095037    1.185277   -2.064176
C      8.561058    0.307637    0.132719
C     -7.033858    3.076610   -0.466060
C     -4.398047   -2.221120   -0.588313
C     -4.176749   -1.261406   -2.813048
C      1.753017    0.898725    0.039571
C      0.172497   -2.081674    1.791053
C     -3.818974    3.048806    2.691371
C     -2.471160    2.782957    2.860419
C      0.234693   -2.331041   -1.138549
C      3.913552    0.105438    1.658337
C      2.536581   -0.470796    1.896698
C      1.678970   -1.924391   -1.480018
C     -6.017671    2.642170    1.704376
C     -5.787116    0.659483   -1.447158
C      4.141204   -0.622367   -1.853390
C      7.662182    0.473760   -1.051176
C     -6.472349    2.235423    0.337273
C     -4.571116    2.231157    1.880434
C     -6.245136    0.822580   -0.036392
C     -0.330832   -1.164615   -0.465030
C      3.734379   -0.877152   -0.620393
C     -4.453683    0.277057   -0.961209
C     -1.955179    1.688008    2.185013
C      5.473104    0.006349   -2.172770
C      4.629637   -0.529926    0.517563
C     -4.066762    1.138826    1.210106
C     -5.004838    0.258920    0.430576
C     -2.709500    0.867809    1.370325
C     -1.800440   -0.073009    0.887093
C      6.347909   -0.186281   -0.979558
C     -1.803095   -1.197859   -0.088716
C     -0.547866    0.165597    1.401983
C     -3.829461   -1.045260   -1.324309
C      1.721448   -0.497453    0.619414
C      0.301734   -0.897352    0.865460
C      2.427888   -1.489903   -0.280908
N     -0.675436    1.251011    2.191133
O      5.202635    1.367074   -2.330475
O      2.728132   -2.647601    0.474578
O      5.670883    0.305797    0.134549
O     -2.477829   -0.902735   -1.267421
H      9.074213    1.646572   -2.058973
H      7.452499    1.311271   -2.927334
H      8.993093    1.291840    0.432070
H      8.035446   -0.109012    1.013138
H      9.352223   -0.410727   -0.161822
H     -7.364507    2.778747   -1.461242
H     -7.195151    4.110394   -0.175345
H     -5.497123   -2.117878   -0.564948
H     -4.211689   -3.124888   -1.243367
H     -4.018466   -2.364925    0.418994
H     -5.208126   -1.663867   -2.818886
H     -4.161104   -0.258842   -3.279931
H     -3.451912   -1.960213   -3.272783
H      2.399132    0.947262   -0.854998
H      0.753196    1.270954   -0.258167
H      2.109779    1.646925    0.807465
H      0.757592   -1.879324    2.717946
H     -0.881826   -2.186713    2.120629
H      0.486217   -3.029795    1.358848
H     -4.227317    3.906588    3.216859
H     -1.877530    3.418378    3.495630
H      0.181024   -3.293069   -0.640461
H     -0.259048   -2.451151   -2.145222
H      4.503925   -0.146697    2.589601
H      3.929627    1.204956    1.606105
H      2.067727    0.095058    2.704165
H      2.702235   -1.548941    2.179171
H      2.183156   -2.780923   -1.927450
H      1.542714   -1.074346   -2.210762
H     -6.027933    3.746518    1.729521
H     -6.659327    2.242680    2.510235
H     -5.848783    1.578867   -2.078930
H     -6.314299   -0.211366   -1.929601
H      3.510726   -0.866238   -2.681512
H     -7.176439    0.191601    0.191080
H     -0.216815   -0.286181   -1.136685
H     -3.730428    1.114740   -1.142699
H      5.889329   -0.396508   -3.099490
H      5.112552   -1.494694    0.838032
H     -5.122087   -0.750739    0.886672
H      6.461242   -1.279608   -0.822373
H     -2.014003   -2.162216    0.352085
H      0.121631    1.663684    2.714089
H      4.901046    1.776794   -1.483625
H      2.604147   -3.469495   -0.051016
