25

C      2.931792    1.204779   -0.173274
C     -1.691268    0.560741    1.125209
C     -2.696166   -0.074811    0.188590
C     -0.294135    0.569852    0.554895
C     -1.924515   -0.428393   -1.088323
C      1.357670   -0.769347   -0.744884
C      2.494853   -0.216052    0.033898
C      0.084563   -0.807778    0.097860
N     -0.948380   -1.431896   -0.687007
O      3.124325   -0.855077    0.861777
H      2.836708    1.794959    0.766742
H      3.980744    1.275114   -0.508509
H      2.294246    1.705374   -0.942406
H     -2.024011    1.603865    1.350026
H     -1.640130    0.034968    2.097162
H     -3.562119    0.558170   -0.024679
H     -2.997720   -1.071324    0.618036
H     -0.140884    1.354976   -0.211631
H      0.390659    0.819850    1.412923
H     -2.669458   -0.883793   -1.788658
H     -1.466310    0.461815   -1.536709
H      1.599328   -1.814490   -1.054779
H      1.230762   -0.176155   -1.657195
H      0.322963   -1.422656    1.005588
H     -0.593516   -1.992691   -1.484950
