34

C     -3.124023   -0.350864    1.322125
C     -3.010252    0.127808   -1.059337
C      1.212099    0.998162   -0.458512
C     -0.243496    1.223290   -0.615557
C      3.065090   -0.561834   -0.189518
C      4.013716    0.578066   -0.151089
C     -0.553560   -1.050816    0.418278
C      1.653717   -0.239746   -0.347682
C     -0.974065    0.380054    0.392912
C      0.658468   -1.376559   -0.385899
C     -2.474228    0.532199    0.270042
O      3.828456    1.482529    0.859575
O      1.242333   -2.538715    0.077653
O     -2.810843    1.842148    0.572991
H     -4.017543   -0.888500    0.902776
H     -3.498289    0.231188    2.186221
H     -2.446537   -1.122880    1.699469
H     -4.045152    0.571434   -1.144399
H     -2.456970    0.489741   -1.925521
H     -3.091778   -0.988818   -1.156834
H      1.928494    1.797636   -0.432025
H     -0.452881    2.296725   -0.347478
H     -0.502670    1.006971   -1.657548
H      3.362158   -1.197220   -1.076411
H      3.269813   -1.231333    0.689307
H      5.042851    0.138480   -0.009650
H      4.063105    1.101603   -1.126311
H     -0.365062   -1.420706    1.466909
H     -1.389775   -1.708891    0.040048
H     -0.712545    0.812129    1.404044
H      0.369781   -1.521803   -1.466325
H      3.305377    1.174866    1.618224
H      1.677340   -3.021972   -0.670222
H     -2.523129    2.435627   -0.168846
