34

C     -2.388339    1.721701    0.098302
C     -3.365702   -0.399405    0.895236
C      1.159132    0.219563   -0.848527
C     -0.264797    0.073582   -1.252629
C      3.113118   -0.305727    0.609749
C      3.954549    0.626027   -0.197390
C     -0.476446   -0.462774    1.122113
C      1.719282   -0.416410    0.174010
C     -1.169740   -0.446821   -0.197499
C      0.778338   -1.329308    0.926683
C     -2.508803    0.254163   -0.160516
O      3.462153    1.906260   -0.161910
O      0.468510   -2.358957    0.036544
O     -3.122618    0.024265   -1.391801
H     -1.393147    2.013624    0.437057
H     -2.696361    2.310093   -0.814353
H     -3.128750    2.011151    0.894676
H     -4.403833    0.040512    0.850109
H     -3.012023   -0.228357    1.913858
H     -3.481769   -1.479606    0.686416
H      1.796788    0.890622   -1.423942
H     -0.589530    1.066707   -1.658693
H     -0.254811   -0.600296   -2.158571
H      3.091352    0.059328    1.678533
H      3.553974   -1.328515    0.669421
H      4.973651    0.631612    0.240582
H      4.038145    0.219435   -1.231766
H     -1.069050   -0.854484    1.952707
H     -0.149926    0.570404    1.399898
H     -1.404473   -1.522859   -0.451924
H      1.196778   -1.671051    1.869180
H      3.751199    2.436988   -0.954840
H      1.256061   -2.738591   -0.410779
H     -3.432913   -0.932877   -1.411530
