59

C     -3.162896    3.766978   -1.911920
C     -3.233239   -1.415151   -3.076753
C      4.901372   -3.480651   -0.434888
C     -2.348760   -1.379760    3.976848
C     -3.431269    2.375926   -1.243296
C      5.753849   -0.139965    1.941022
C      4.799243    0.848297    2.067004
C      5.482506   -1.247078    1.158979
C      1.242594   -1.075767   -0.766304
C      0.290107   -0.279431   -1.617675
C     -0.806644    0.714650    1.033046
C     -1.140916    1.606900   -1.778574
C     -3.338613   -1.070623   -0.721310
C     -2.163481    1.827930   -0.719098
C      2.077131   -0.235520    0.127174
C     -2.216525    0.873294    0.369233
C     -2.815172   -0.445533    0.297037
C      3.575852    0.760613    1.430528
C      0.217321    1.358646    0.176605
C      4.269883   -1.365574    0.509495
C      3.346034   -0.361131    0.659710
C      1.601197    0.960157    0.604155
C     -2.859794   -1.241341    1.584093
N      2.489955    1.566503    1.386283
N      0.065247    1.037679   -1.192213
O     -3.341740   -2.364344    1.651574
O     -3.407836   -0.548430   -1.967738
O      3.940800   -2.450237   -0.286927
O     -2.336805   -0.685750    2.740159
H     -4.118205    4.320059   -1.994425
H     -2.687469    3.596896   -2.895877
H     -2.469774    4.276585   -1.228422
H     -4.018607   -2.222914   -3.069404
H     -3.365066   -0.878166   -4.023060
H     -2.273378   -1.944575   -3.074697
H      5.047045   -4.013531    0.531486
H      5.900001   -3.063423   -0.727892
H      4.587732   -4.224879   -1.195751
H     -2.443328   -0.701112    4.843296
H     -1.524265   -2.103011    4.063576
H     -3.302652   -1.984015    3.972445
H     -4.087061    2.649621   -0.380008
H     -3.953402    1.841890   -2.024696
H      6.726396   -0.069594    2.447384
H      5.053919    1.696050    2.688264
H      6.200633   -2.056674    1.025232
H      0.721608   -1.839921   -0.135752
H      1.902731   -1.655956   -1.443171
H      0.677550   -0.231531   -2.679810
H     -0.645390   -0.858886   -1.698077
H     -0.617052   -0.369876    1.208081
H     -0.809296    1.168545    2.042935
H     -0.811105    2.610090   -2.187596
H     -1.442334    1.056663   -2.671892
H     -3.759526   -2.096468   -0.578219
H     -1.720980    2.844802   -0.210750
H     -2.787093    1.398494    1.220351
H      0.125403    2.470171    0.281740
H      2.443564    2.473380    1.898461
