51

C     -0.329379   -1.088670    3.392620
C     -2.709276   -2.118421   -1.675190
C     -1.215173   -0.874261    2.149558
C     -2.056069   -1.784249   -0.393482
C     -1.759174    3.068875    0.183065
C     -2.947942    3.288803   -0.473458
C      5.171085   -0.949599   -0.510352
C     -0.032739   -0.843781   -1.405166
C      1.165731    0.004920   -1.301882
C      5.976256   -0.372365   -1.467381
C      0.097165    1.694260    0.953514
C     -2.949769    0.981368   -1.063247
C      2.810455   -0.572204    0.383739
C      4.097707    0.699548   -1.474572
C      3.958810   -0.267356   -0.506280
C     -1.176382    1.813865    0.212205
C     -3.550500    2.225419   -1.105898
C     -0.313643   -0.772238    0.956300
C     -1.749112    0.709111   -0.413306
C      0.662515    0.332711    1.023197
C     -1.116328   -0.615805   -0.371788
N      1.679263    0.197989    0.015757
O     -4.766854    2.408188   -1.788287
O      5.299984    0.610533   -2.022918
H      0.132227   -0.152995    3.719425
H     -0.881236   -1.633652    4.172884
H      0.499486   -1.769700    3.068086
H     -3.807326   -2.063930   -1.573801
H     -2.535036   -3.200478   -1.972517
H     -2.406650   -1.557083   -2.564795
H     -1.706465    0.106583    2.300851
H     -1.957403   -1.669164    2.117635
H     -2.876806   -1.665965    0.370888
H     -1.496311   -2.691103   -0.038068
H     -1.293908    3.918823    0.678856
H     -3.429862    4.256097   -0.515628
H      5.433680   -1.783775    0.124506
H      0.290948   -1.914450   -1.243411
H     -0.434662   -0.791593   -2.439812
H      1.980993   -0.520752   -1.885076
H      1.006591    0.967179   -1.802049
H      6.989689   -0.688661   -1.706109
H      0.825346    2.357367    0.399800
H     -0.002691    2.194653    1.946666
H     -3.473667    0.208762   -1.569650
H      2.621587   -1.660951    0.464931
H      3.121396   -0.235267    1.406983
H      3.361956    1.423380   -1.758612
H      0.220905   -1.733928    0.838826
H      1.201845    0.243846    2.013685
H     -5.631257    2.280118   -1.274654
