19

C      1.952542    0.332206   -0.201686
C      0.525329    0.783318   -0.499843
C      1.756553   -0.595572    0.953135
C     -1.712285   -0.194020    0.050863
C     -0.250328   -0.474001   -0.218330
N     -2.351008    0.447764   -1.069910
N      0.345553   -0.892967    1.049923
H      2.563367    1.218216    0.017180
H      2.339633   -0.221624   -1.094103
H      0.265025    1.516419    0.277742
H      0.412789    1.165089   -1.517861
H      2.297650   -1.544067    0.790397
H      2.059632   -0.093278    1.894964
H     -1.782528    0.424813    0.951444
H     -2.217467   -1.150843    0.250598
H     -0.162081   -1.235142   -0.997200
H     -2.785503   -0.278159   -1.677501
H     -3.133729    1.077537   -0.744195
H     -0.123145   -0.285687    1.784383
