35

C     -2.493484   -1.741925    1.293294
C      3.618319   -2.130133    0.093823
C      4.408195   -1.132949   -0.429031
C      2.276539   -1.895992    0.171175
C      3.816626    0.025823   -0.842360
C     -1.587820    3.021928    0.168696
C     -2.275643    2.093010   -0.595224
C      0.205774    1.497375    0.617845
C     -1.874302   -2.108019   -0.015943
C     -0.360768    2.737980    0.773725
C      1.648427   -0.711596   -0.244744
C     -0.490967    0.555607   -0.159804
C      2.438920    0.258468   -0.763215
C     -1.703422    0.852569   -0.746202
C      0.218347   -0.720205   -0.221735
C     -2.564419   -1.376217   -1.109424
Cl     1.862140    1.723240   -1.547101
N     -0.429134   -1.861094   -0.061690
N     -2.531670   -0.103045   -1.475213
N      0.325992    3.705016    1.549036
O     -3.387660   -2.155328   -1.885349
O      1.520864    3.418626    2.131186
O     -0.165356    4.832114    1.702063
H     -2.435266   -2.573595    2.046704
H     -3.580276   -1.578703    1.120221
H     -2.104016   -0.792238    1.717139
H      4.062870   -3.083561    0.436523
H      5.486445   -1.295689   -0.499045
H      1.676364   -2.717473    0.595452
H      4.471588    0.807649   -1.256725
H     -2.032117    3.993620    0.288817
H     -3.219570    2.288676   -1.069123
H      1.135906    1.167816    1.070653
H     -2.006524   -3.188789   -0.187329
H     -3.930904   -1.812964   -2.667092
