88

C      6.888642    3.056765    2.570205
C     -3.698673    6.542121    0.741298
C      0.105540   -5.860142   -1.058471
C     -0.565944   -8.138510   -0.448764
C      7.447157    3.262961    1.201142
C     -2.649694    5.652717    1.329273
C      6.935621    2.393135    0.137015
C     -3.312745    4.374417    1.801538
C      5.517592    2.510428   -0.242361
C     -3.978648    3.672537    0.643312
C      4.555807    2.215758    0.853495
C      3.112055    2.311279    0.359677
C      2.804590    1.334193   -0.742425
C      1.330765    1.519829   -1.135128
C      0.934102    0.587017   -2.242242
C      1.034320   -0.832926   -1.953826
C     -3.063042    3.285331   -0.448254
C      0.161035   -1.556662   -0.992802
C     -1.925768    2.404152   -0.201189
C     -2.288322   -6.439462   -0.434614
C     -2.309485   -0.790505   -1.475208
C     -3.639018   -4.869978    2.043103
C     -0.839542   -6.649721   -0.230911
C     -1.248844   -1.761751   -1.308452
C     -2.074332    1.038127    0.302157
C     -2.774406   -5.070410   -0.167903
C     -2.859362    0.064259   -0.435078
C     -2.983559    0.702057    1.398337
C     -2.194619   -4.017077   -1.031012
N     -2.674059   -4.689988    1.232139
O     -4.822498   -5.430084    1.646128
O     -3.550554    1.171192    2.417428
O     -2.072978   -4.209297   -2.257064
O     -1.801637   -2.830205   -0.480395
O     -3.043797   -0.600784    0.846124
H      6.242307    3.904305    2.916966
H      6.410359    2.078796    2.734913
H      7.774893    3.062825    3.303160
H     -4.704373    6.337331    1.166289
H     -3.778358    6.465282   -0.349397
H     -3.445769    7.607707    1.011718
H      1.141241   -6.305433   -0.877814
H      0.083178   -4.816227   -0.713992
H     -0.040026   -5.953947   -2.140236
H     -0.734052   -8.366658   -1.511303
H      0.506290   -8.328862   -0.207391
H     -1.228881   -8.687125    0.230819
H      8.579020    3.122709    1.270738
H      7.276700    4.343211    0.897119
H     -2.173587    6.130899    2.229800
H     -1.861961    5.485351    0.595958
H      7.621309    2.564940   -0.766897
H      7.184439    1.297876    0.400872
H     -4.127402    4.676257    2.499005
H     -2.624239    3.734994    2.371467
H      5.291705    3.544585   -0.665989
H      5.304054    1.776917   -1.096948
H     -4.729380    2.963975    0.969046
H     -4.626680    4.521503    0.180740
H      4.722463    1.220197    1.301736
H      4.599154    2.969339    1.678021
H      2.479135    2.155637    1.245278
H      2.982811    3.378190    0.031716
H      3.448961    1.427062   -1.624784
H      2.898400    0.322336   -0.300331
H      1.277687    2.560540   -1.538490
H      0.764920    1.451400   -0.232424
H      1.667677    0.841984   -3.092468
H     -0.054191    0.944097   -2.610405
H      1.056929   -1.438308   -2.950268
H      2.106169   -1.011192   -1.561573
H     -2.627644    4.265618   -0.847240
H     -3.678494    2.946997   -1.325783
H      0.608305   -2.592407   -0.782436
H      0.324231   -1.054834    0.002582
H     -1.152429    2.920171    0.423894
H     -1.388411    2.307039   -1.206806
H     -2.618287   -6.804562   -1.455952
H     -2.807890   -7.202299    0.242839
H     -3.234622   -1.397355   -1.873126
H     -2.069191   -0.169767   -2.400349
H     -3.521711   -4.570303    3.082584
H     -0.632568   -6.422262    0.862966
H     -1.215336   -2.297003   -2.360674
H     -1.068234    0.632223    0.601366
H     -3.894492   -5.096046   -0.358561
H     -3.932951    0.419734   -0.665064
H     -4.836875   -6.218210    1.028835
