48

C     -5.850819    1.082175    1.653646
C      6.266604    1.576728   -1.515180
C     -4.603182    0.646675    1.569652
C      5.348952   -0.225836    0.427314
C      4.842869   -1.091659    1.363977
C      0.741492   -1.712456    1.852154
C     -3.152118   -0.653779   -1.638236
C      1.700232   -2.348717    2.626553
C     -2.290770    0.595757   -1.787049
C     -2.048274   -1.064351    0.480052
C      3.068064    0.233260   -0.234005
C     -2.813815    1.676425    0.197487
C     -3.896153    0.643657    0.278481
C     -3.427412   -0.739067   -0.156118
C      4.442662    0.432929   -0.368241
C      1.169152   -0.844235    0.879348
C      2.551029   -0.631714    0.701145
C      3.463679   -1.286555    1.493967
C     -1.136037    0.076742    0.316859
C      0.290000   -0.115425   -0.006058
N      3.005954   -2.130503    2.438883
N     -1.727357    1.061712   -0.582803
O      0.471970   -0.617476   -1.305035
O      4.903757    1.318381   -1.324775
H     -6.420292    1.106520    2.577087
H     -6.362688    1.447648    0.752266
H      6.331250    2.530903   -2.101643
H      6.789512    0.787676   -2.089532
H      6.817593    1.706772   -0.561425
H     -4.151992    0.295956    2.510124
H      6.420584   -0.082699    0.337014
H      5.533871   -1.627950    2.009996
H     -0.302674   -1.877371    1.978418
H     -2.619337   -1.579822   -1.921339
H     -4.117555   -0.580148   -2.179935
H      1.310527   -3.028501    3.392835
H     -1.641887    0.537872   -2.673474
H     -3.056274    1.387154   -2.087602
H     -2.379952   -1.238131    1.558636
H     -1.682658   -1.963439   -0.010470
H      2.428688    0.771895   -0.880140
H     -3.109059    2.642442   -0.208653
H     -2.388064    1.809696    1.216575
H     -4.641880    0.937684   -0.516888
H     -4.166927   -1.492789    0.115123
H     -1.141676    0.622347    1.328156
H      0.699783    0.967499   -0.002095
H      0.530631    0.036119   -2.007389
