48

C      5.815482    0.544724    1.720219
C     -5.915392    2.728971    1.147509
C      4.513872    0.430840    1.561949
C     -5.220069   -0.158649    0.681630
C     -4.827901   -1.463117    0.464945
C     -0.872189   -2.244448   -0.403514
C      2.917564   -0.895159   -1.555516
C     -1.803021   -3.265443   -0.288885
C      2.507537    0.525267   -1.934932
C      1.801089   -0.789863    0.603008
C     -3.019901    0.603118    0.257944
C      2.945039    1.615152    0.063835
C      3.925753    0.448493    0.206921
C      3.200141   -0.887576   -0.074092
C     -4.354404    0.885430    0.588763
C     -1.209270   -0.923470   -0.252484
C     -2.563040   -0.685031    0.027745
C     -3.486427   -1.698998    0.139894
C      1.045138    0.264512   -0.035315
C     -0.331972    0.193398   -0.538899
N     -3.073977   -2.993516   -0.026502
N      1.878526    1.194174   -0.813694
O     -0.153903   -0.100333   -2.031968
O     -4.673659    2.202805    0.805762
H      6.250116    0.533179    2.721710
H      6.450951    0.646369    0.846905
H     -6.111807    2.548378    2.233171
H     -6.760640    2.462059    0.489867
H     -5.800724    3.851699    1.084225
H      3.873402    0.322932    2.425581
H     -6.274730    0.023455    0.939466
H     -5.508339   -2.305450    0.533674
H      0.154779   -2.549142   -0.662040
H      2.126385   -1.632870   -1.761505
H      3.795515   -1.203713   -2.147306
H     -1.478954   -4.277816   -0.407641
H      3.453650    1.062246   -2.129639
H      1.916616    0.579887   -2.862117
H      2.150972   -0.476226    1.681179
H      1.447734   -1.782287    0.769098
H     -2.309505    1.396663    0.178817
H      3.463063    2.500501   -0.364342
H      2.590209    1.835637    1.087328
H      4.719565    0.520691   -0.560173
H      3.777064   -1.717595    0.298566
H      0.865602    1.027348    0.905775
H     -0.728465    1.197314   -0.670388
H     -1.107478   -0.094541   -2.291941
