35

C     -0.491854    3.146014   -0.557128
C     -1.701464   -3.463501   -0.162940
C     -3.051639   -3.285417   -0.343357
C     -0.930886   -2.342217    0.096920
C     -3.629304   -2.037453   -0.270167
C      3.419523   -0.159927   -0.331290
C      3.001648    0.744592    0.658007
C      1.175684   -0.743981   -0.775274
C     -0.865534    2.583703    0.787603
C      2.513621   -0.903715   -1.048979
C     -1.422909   -1.095561    0.180010
C      0.752652    0.150671    0.211617
C     -2.811062   -0.961412   -0.010314
C      1.658568    0.893514    0.921132
C     -0.696293    0.124083    0.361495
C      0.237514    2.607751    1.776498
Cl    -3.575737    0.623474    0.078027
N     -1.362828    1.234242    0.568054
N      1.343454    1.907191    1.885330
N      2.969169   -1.806232   -2.032493
O      0.090388    3.538080    2.780460
O      4.295296   -1.952225   -2.287378
O      2.130817   -2.472848   -2.669077
H     -1.450916    3.465613   -1.057028
H     -0.092760    2.329348   -1.181829
H      0.189013    4.016248   -0.487991
H     -1.255848   -4.466758   -0.224573
H     -3.691196   -4.156833   -0.551475
H      0.132200   -2.569906    0.296658
H     -4.704253   -1.927683   -0.416797
H      4.486371   -0.242965   -0.500975
H      3.725533    1.319416    1.208730
H      0.427148   -1.249108   -1.346853
H     -1.702446    3.170116    1.191470
H      0.888331    3.983687    3.253906
