46

C     -3.814061   -3.315678   -0.687494
C     -2.769350    3.426595    1.320293
C     -3.422423   -3.141060    0.611427
C     -3.341824   -2.543981   -1.729627
C     -2.807786    2.348448    2.172734
C     -2.173935    3.308684    0.091068
C      3.847871    1.525139   -1.011625
C      4.386009    1.155688    0.356972
C     -2.498036   -2.123896    0.865415
C     -2.440402   -1.553863   -1.473555
C     -2.235500    1.146333    1.766390
C     -1.606228    2.089222   -0.292937
C      2.383720    1.218361   -1.144559
C      4.263720   -0.311004    0.651192
C      0.506684   -1.741099    0.291238
C     -2.017747   -1.345693   -0.162507
C     -1.634635    0.996763    0.547439
C      2.082799    0.015412   -0.288989
C      0.919201   -0.804441   -0.853177
C     -1.036395   -0.261338    0.118030
N      3.209999   -0.876321   -0.176703
O     -0.173998   -0.800877    1.101434
O     -0.215990   -0.031223   -0.998475
H     -4.528810   -4.095173   -0.916245
H     -3.199395    4.391115    1.581886
H     -3.781017   -3.734594    1.436871
H     -3.672160   -2.710022   -2.739083
H     -3.281672    2.476077    3.127249
H     -2.131864    4.138895   -0.592491
H      4.399371    0.915327   -1.750165
H      4.057686    2.625589   -1.127208
H      5.475270    1.395785    0.341469
H      3.913811    1.740540    1.162092
H     -2.182517   -1.981059    1.880740
H     -2.031977   -0.911846   -2.258261
H     -2.276787    0.327820    2.444094
H     -1.152613    2.061805   -1.273870
H      2.191664    1.021197   -2.230068
H      1.790870    2.114827   -0.852070
H      5.194702   -0.875188    0.424739
H      4.071363   -0.502364    1.746342
H      1.378419   -2.166331    0.799618
H     -0.191085   -2.476481   -0.131615
H      1.768682    0.364263    0.706377
H      1.202836   -1.348133   -1.752940
H      3.573527   -1.152221   -1.101445
