38

C      4.180071    1.133049   -1.344640
C      5.257710   -0.963614   -0.696267
C     -3.819499   -1.780784   -2.343731
C     -5.075552    1.298074    0.296025
C     -4.186728    1.816708    1.215764
C     -4.661163    0.284949   -0.572189
C     -2.919177    1.329434    1.259693
C      1.767220    0.041092    0.060416
C     -0.307166    0.391474    1.419919
C      3.922358   -0.309070   -0.969740
C      1.054919   -0.219353    1.376207
C     -3.371390   -0.192871   -0.508860
C     -2.500271    0.323989    0.401629
N      3.091743   -0.464768    0.173011
O      1.032156   -1.587350    1.620025
O     -2.986865   -1.196552   -1.380272
O     -1.187076   -0.160869    0.468071
H      3.905952    1.846673   -0.555460
H      5.254857    1.289589   -1.576879
H      3.638579    1.414461   -2.287861
H      5.359817   -1.129249    0.394967
H      6.107796   -0.342230   -1.046787
H      5.261362   -1.977641   -1.155322
H     -4.422216   -2.619273   -1.918977
H     -3.151988   -2.216717   -3.126037
H     -4.508952   -1.081007   -2.844139
H     -6.085631    1.682388    0.256953
H     -4.474692    2.605679    1.906575
H     -5.372814   -0.101692   -1.278795
H     -2.192420    1.720743    1.977688
H      1.228783   -0.591093   -0.702559
H      1.686253    1.091036   -0.252963
H     -0.204400    1.488909    1.289744
H     -0.745044    0.197189    2.417634
H      3.490110   -0.793727   -1.868017
H      1.670674    0.246429    2.174282
H      3.552986   -0.350401    1.078984
H      0.709696   -2.123606    0.864843
