88

C      9.918697    2.389119    1.450545
C     -6.299448    5.472316   -0.230440
C     -3.604355   -6.509400   -0.084741
C     -3.378271   -5.647662   -2.338929
C      8.464274    2.495578    1.848031
C     -5.408148    5.115370    0.956926
C      7.704678    3.211213    0.777963
C     -5.607481    3.685186    1.294206
C      7.829980    2.444105   -0.516185
C     -5.274343    2.803020    0.095474
C      7.295950    1.033767   -0.418063
C      5.821819    1.041647   -0.055883
C      5.277177   -0.365108    0.050877
C      3.809479   -0.376025    0.402565
C      2.979782    0.299083   -0.639856
C      1.508690    0.323006   -0.298743
C     -3.850376    2.949825   -0.322926
C      0.913971   -1.017757   -0.101602
C     -3.493274    2.158554   -1.508175
C     -2.598201   -4.208870   -0.451320
C     -1.328561   -0.143478   -0.859260
C     -3.646603   -4.604114    2.494267
C     -2.786874   -5.607752   -0.932732
C     -0.583906   -0.821484    0.255402
C     -3.596223    0.712144   -1.574668
C     -1.916718   -4.186057    0.870786
C     -2.768644    0.040050   -0.480215
C     -4.627924   -0.139603   -1.085916
C     -1.652243   -2.839576    1.432856
N     -2.606342   -4.942544    1.874988
O     -4.384637   -3.450135    2.379020
O     -5.893842   -0.331292   -0.988967
O     -1.969878   -2.572705    2.668712
O     -1.127197   -1.856117    0.845516
O     -3.641930   -1.016991   -0.564190
H     10.054420    1.627213    0.661831
H     10.277870    3.370631    1.084812
H     10.527659    2.097423    2.347894
H     -6.676977    6.493090   -0.060078
H     -5.681684    5.453745   -1.161632
H     -7.120672    4.716853   -0.360739
H     -4.587317   -6.095579    0.239434
H     -3.864091   -7.405492   -0.740153
H     -3.121171   -6.952649    0.786120
H     -4.373317   -6.139364   -2.348100
H     -2.724440   -6.234402   -3.013511
H     -3.561014   -4.616346   -2.721998
H      8.346178    3.055505    2.804692
H      8.025106    1.497848    2.027805
H     -4.375362    5.347980    0.672970
H     -5.699524    5.788108    1.814957
H      8.085420    4.263832    0.645320
H      6.627513    3.336216    1.012530
H     -6.649855    3.448099    1.618075
H     -4.924836    3.389013    2.120908
H      8.839450    2.479318   -0.964938
H      7.179445    3.014702   -1.250038
H     -5.927683    3.033067   -0.767543
H     -5.468089    1.735635    0.391941
H      7.889576    0.443147    0.302775
H      7.366647    0.610179   -1.452315
H      5.739399    1.524624    0.944765
H      5.267988    1.681239   -0.766213
H      5.886508   -1.002775    0.684442
H      5.339208   -0.789109   -0.991647
H      3.724835    0.144072    1.393419
H      3.506135   -1.430769    0.584715
H      3.283563    1.386662   -0.636625
H      3.193505   -0.119598   -1.620844
H      1.360648    0.941268    0.589542
H      1.026775    0.786975   -1.215377
H     -3.709608    4.056232   -0.559207
H     -3.143988    2.807525    0.539506
H      1.344704   -1.502205    0.790411
H      0.988062   -1.667203   -1.005996
H     -2.402803    2.422108   -1.740921
H     -4.023724    2.577867   -2.443793
H     -3.611840   -3.726614   -0.467735
H     -2.021273   -3.660740   -1.243936
H     -1.174666   -0.597350   -1.838776
H     -0.913145    0.901543   -0.911233
H     -4.044476   -5.320898    3.245450
H     -1.757225   -6.068062   -0.985848
H     -0.544815    0.023776    1.062092
H     -3.156479    0.301241   -2.579249
H     -0.874968   -4.620769    0.712299
H     -2.825959    0.571357    0.494108
H     -4.398692   -2.915480    1.550101
