40

C     -0.398928    3.704935    1.026886
C     -1.738655    3.831673    0.747590
C     -1.846515   -2.647083    0.118646
C      0.221996    2.464159    0.894110
C     -2.444437    2.699367    0.334442
C     -1.195714   -1.879749   -0.948566
C      1.759245   -0.257387   -1.408892
C      2.220702   -0.451714    0.896663
C      3.088022   -0.437419   -1.735142
C      3.553270   -0.634194    0.604973
C     -3.086939   -1.911325    0.563764
C      1.294191   -0.257882   -0.129240
C      3.983134   -0.626117   -0.717575
C     -0.470827    1.348486    0.487634
C     -1.816772    1.479121    0.207752
C     -1.094852   -0.442461   -0.810017
C     -0.104407   -0.070681    0.257470
C     -2.365528    0.163927   -0.210644
N      5.363553   -0.815344   -1.016110
N     -2.705904   -0.578055    0.961696
H      0.189094    4.548623    1.348964
H     -2.230862    4.780969    0.845246
H     -2.113323   -3.660494   -0.176881
H     -1.144345   -2.656592    0.974404
H      1.283519    2.384306    1.119961
H     -3.497110    2.837940    0.123631
H     -1.132414   -2.269465   -1.599775
H     -0.616105   -2.366087   -1.705047
H      1.056363   -0.107957   -2.230934
H      1.884069   -0.457789    1.928064
H      3.427693   -0.431313   -2.775077
H      4.274566   -0.784473    1.392172
H     -3.811572   -1.841546   -0.262866
H     -3.578360   -2.453940    1.401539
H     -0.913543    0.097906   -1.744046
H     -0.330842   -0.631773    1.184533
H     -3.165725    0.245145   -0.953833
H      5.718851   -1.787067   -1.158449
H      5.994410    0.010604   -1.087794
H     -3.508998   -0.139252    1.460375
