33

C     -1.188418   -2.133962   -1.691928
C     -0.868682    1.393506    0.886753
C      0.546701   -0.086107   -0.211886
C      0.089587    2.373693    0.895377
C      1.547705    0.891504   -0.220285
C     -2.713105   -3.131281   -0.112389
C      5.702664    3.900544   -0.385869
C      4.985844    1.837826   -1.479131
C     -1.570261   -2.188414   -0.212110
C     -0.687659    0.136276    0.340430
C      1.318080    2.117362    0.332025
C      4.587366    2.937083   -0.615210
C     -3.892073   -2.570088    0.558621
C     -1.747392   -0.868051    0.363034
N      6.566582    4.638111   -0.198413
N      5.332023    0.937309   -2.182964
N      2.321229    3.157165    0.338929
N      3.514474    3.091197   -0.130921
N     -3.922581   -1.387836    1.017817
N     -2.847700   -0.533793    0.921248
O     -5.061327   -3.395194    0.701529
H     -0.282231   -2.728161   -1.922768
H     -1.152943   -1.085982   -2.026472
H     -1.994861   -2.597456   -2.338782
H     -1.827009    1.615596    1.335430
H      0.795366   -1.012793   -0.656338
H     -0.126903    3.331326    1.341772
H      2.512064    0.694898   -0.659362
H     -3.086000   -3.450139   -1.138679
H     -2.447545   -4.065069    0.465968
H     -0.689519   -2.718615    0.279044
H      1.980092    4.073775    0.799759
H     -5.693570   -3.174232    1.483932
