41

C     -0.226066   -0.785857   -1.469504
C     -3.065069   -0.498142    0.305608
C     -2.989078    0.819363   -0.232304
C     -2.234629   -1.659165    0.077959
C     -1.986837    1.896294    0.183229
C      2.987572    1.310106   -0.070571
C      4.022836    0.396691    0.092170
C     -0.801773   -1.834148    0.512872
C      0.644277    1.982652   -0.257050
C      2.419737   -1.370854    0.224997
C      1.673110    0.901063   -0.087406
C     -0.686676    1.426784   -0.155818
C      3.733968   -0.957840    0.241476
C      1.403029   -0.482681    0.066096
C     -0.472386    0.366500    0.864421
C     -0.019680   -0.754461    0.019269
N      0.538103    0.822470    1.874904
O      4.760626   -1.857610    0.402278
H      0.475392   -0.160554   -2.070914
H      0.149082   -1.835875   -1.727917
H     -1.231186   -0.788982   -1.851188
H     -4.058314   -0.879074   -0.167839
H     -3.481030   -0.463554    1.375307
H     -2.935836    0.813344   -1.361925
H     -3.981368    1.342941   -0.053139
H     -2.376548   -2.158674   -0.934311
H     -2.725531   -2.479118    0.722552
H     -2.195444    2.083960    1.277476
H     -2.284171    2.800201   -0.339722
H      3.277400    2.350339   -0.180981
H      5.044131    0.736334    0.102608
H     -0.739938   -1.916034    1.637809
H     -0.492429   -2.812367    0.129426
H      0.806855    2.776727    0.531152
H      0.893437    2.493425   -1.209798
H      2.134947   -2.427413    0.338460
H     -0.849532    1.090016   -1.230600
H     -1.228325    0.201199    1.632783
H      0.189021    1.719502    2.255445
H      0.729227    0.082747    2.555547
H      5.179098   -2.290255   -0.398230
