33

C     -3.273869   -1.847760   -0.377242
C      0.163604   -1.265175    0.164206
C      0.248695    1.198711    0.164052
C      1.603153   -1.234799    0.389619
C      1.663959    1.155979    0.390949
C     -4.033631    0.279149   -1.154018
C      6.714741    1.434130    0.115422
C      6.404447   -0.630001   -0.445512
C     -2.770192   -0.500680   -0.941268
C     -0.348257   -0.028037    0.070890
C      2.238054   -0.056817    0.491448
C      5.785570    0.666763    0.120174
C     -4.487899    1.257737   -0.206084
C     -1.865182    0.132678   -0.055456
N      7.843671    2.361841    0.127577
N      6.962806   -1.821576   -0.946083
N      3.608508   -0.120718    0.925141
N      4.716249    0.332858    0.556735
N     -3.515164    1.699903    0.679453
N     -2.280633    1.159894    0.679396
O     -5.693651    1.835847    0.003707
H     -4.189732   -1.668261    0.266293
H     -3.546388   -2.457486   -1.243250
H     -2.555379   -2.368834    0.292470
H     -0.312588   -2.240595    0.104007
H     -0.116414    2.180365    0.078093
H      2.067615   -2.216083    0.467620
H      2.219938    2.093516    0.438050
H     -3.758047    0.881122   -2.137995
H     -4.779535   -0.490560   -1.564689
H     -2.253366   -0.803378   -1.935449
H      3.641490   -0.767456    1.881963
H     -6.102573    1.847724    0.962447
