45

C      0.321838   -1.967015    3.317836
C      4.165519    0.035125   -1.411306
C      2.913100   -0.306351   -1.846916
C      4.555399   -0.291670   -0.123766
C      2.009660   -0.976976   -1.032710
C      3.649201   -0.955280    0.669091
C     -1.714557    0.772315    0.724451
C     -2.022217   -0.947847   -1.744441
C     -2.787273    3.467803    0.402506
C     -1.028131   -0.463700    1.132801
C     -1.745179   -1.569067   -2.879542
C     -3.482044    4.632433    0.216208
C     -1.619645    1.073349   -2.804972
C     -3.567549    2.839537   -1.697773
C      1.003010   -1.113015    2.286929
C      2.384540   -1.303429    0.238267
C     -1.977220    0.383708   -1.636427
C     -2.796415    2.531937   -0.530095
C     -2.135841    1.203529   -0.399639
C      1.489271   -2.015325    1.178201
N      0.213240   -0.033883    1.810646
O      2.249269   -3.045138    1.788495
S     -1.352414   -0.227344   -4.045784
S     -4.224234    4.405151   -1.422046
H     -0.523050   -2.478941    2.813804
H      1.046903   -2.772965    3.595384
H      0.044475   -1.440264    4.232680
H      4.851049    0.556671   -2.063882
H      2.621678   -0.045279   -2.852429
H      5.530668   -0.023160    0.208313
H      1.040820   -1.223511   -1.423231
H      3.933666   -1.225067    1.691103
H     -1.900577    1.459585    1.597973
H     -2.357481   -1.568411   -0.856887
H     -2.221234    3.364614    1.364424
H     -0.632759   -1.022513    0.257704
H     -1.664505   -1.056054    1.782105
H     -1.721810   -2.610363   -3.177084
H     -3.619591    5.541505    0.840834
H     -1.493982    2.129761   -2.986469
H     -3.725237    2.192375   -2.572421
H      1.933106   -0.667291    2.752935
H      0.659439   -2.510752    0.685178
H      0.741101    0.622260    1.231894
H      2.955996   -3.351047    1.164602
