42

C     -3.462105   -0.389593   -2.069819
C      2.552216    1.989165    1.117716
C     -3.959309   -0.251518   -0.651224
C     -2.485226    1.051933    2.311971
C     -1.430576    0.099617    1.737499
C     -3.690215    0.661309    1.481590
C      5.053764   -1.557873    0.198307
C     -0.775303    1.087783   -0.393302
C     -1.776729    0.136429    0.270464
C      4.510812   -2.000937   -0.970421
C      4.319246   -0.698178    0.964739
C      2.483629   -0.718716   -0.608205
C      3.231354   -1.585120   -1.375071
C      3.070086   -0.279161    0.590118
C      1.153075   -0.258054   -0.965881
Cl     5.442494   -3.108677   -1.971190
Cl     4.957120   -0.085437    2.486059
N      0.535183    0.554510   -0.168945
N     -3.119189    0.603782    0.149688
O      2.787962   -2.097974   -2.572847
O      0.493933   -0.633191   -2.113624
O      2.326382    0.602589    1.383105
H     -2.544680   -1.031624   -2.133058
H     -3.271517    0.575075   -2.560229
H     -4.252613   -0.912349   -2.645080
H      1.658958    2.541193    1.428875
H      3.464018    2.324548    1.697096
H      2.770176    2.199093    0.065336
H     -4.064939   -1.269446   -0.232745
H     -4.962138    0.223369   -0.709083
H     -2.198312    2.100395    2.055940
H     -2.633975    0.897784    3.384498
H     -0.414575    0.431699    1.950349
H     -1.665423   -0.915070    2.142509
H     -4.005489   -0.356532    1.747370
H     -4.506484    1.403966    1.542340
H      6.037909   -1.855718    0.545418
H     -1.037296    1.291706   -1.431961
H     -0.840053    2.036105    0.211335
H     -1.625098   -0.866975   -0.218142
H      1.952633   -1.932266   -3.008051
H     -0.079705   -0.007640   -2.663445
