45

C      2.280485    1.879379   -3.190749
C      2.009004    0.402277   -3.023174
C     -0.310052   -3.349460    1.355955
C      1.008535   -3.059114    1.117123
C     -1.289797   -2.339497    1.344517
C     -2.239335    2.362948    0.720335
C     -3.587738    2.165336    0.964229
C      2.830228   -1.492279    0.607562
C      1.252242    0.076724   -1.772875
C      3.087860   -0.289945   -0.252982
C      0.045031    1.661223    0.469278
C      1.403811   -1.769370    0.860405
C     -1.343999    1.308038    0.753777
C     -0.869008   -1.061016    1.085592
C      1.015324    0.575372    0.569599
C     -4.071722    0.910399    1.246638
C      0.461621   -0.757324    0.843404
C     -1.837611    0.045492    1.039282
C     -3.168514   -0.159361    1.281410
N      1.899365    0.452742   -0.564449
O     -5.397576    0.628637    1.500359
O     -3.695523   -1.382952    1.566032
Cl     0.684113    0.000000    0.000000
H      3.337833    2.103381   -3.438078
H      1.918451    2.417343   -2.294089
H      1.689115    2.307012   -4.048208
H      2.963106   -0.154278   -3.117085
H      1.387947    0.077621   -3.887190
H     -0.668687   -4.356640    1.564048
H      1.731424   -3.871349    1.134941
H     -2.304226   -2.622780    1.536621
H     -1.932964    3.382015    0.503844
H     -4.287858    2.994706    0.937457
H      3.308171   -2.418911    0.188549
H      3.314135   -1.372018    1.605900
H      0.271163    0.590795   -1.829889
H      1.033719   -1.007160   -1.776155
H      3.771029    0.386310    0.301183
H      3.604828   -0.553470   -1.190211
H      0.088209    2.155725   -0.546160
H      0.289533    2.523522    1.162492
H      1.704654    0.800870    1.440692
H     -6.058701    1.407260    1.475750
H     -4.643509   -1.598203    1.754319
H     -0.684113    0.000000    0.000000
