34

C      2.885805    0.310439   -0.183893
C     -0.481051    1.483446   -1.920760
C     -0.347469    1.718775    1.103667
C      2.389677    0.380559    1.212015
C     -0.275733    0.065704   -1.596000
C      1.094419   -0.217130    1.585808
C     -0.147798    0.229621    0.942837
C     -2.230166   -0.297066   -0.220116
C     -0.384856   -1.867766   -0.156830
C     -2.644655   -2.624239   -0.033602
C     -0.748168   -0.431693   -0.244175
N     -3.046345   -1.265015   -0.125203
N     -1.244016   -2.798619   -0.062567
O     -2.810023    0.990237   -0.309029
O      0.979289   -2.265702   -0.183001
S     -3.701600   -3.852612    0.092112
H      2.340811    1.042870   -0.835557
H      3.036983   -0.669662   -0.624553
H      3.938981    0.777898   -0.169454
H     -0.779661    1.625115   -3.017581
H     -1.175398    2.077824   -1.339938
H      0.490523    2.070306   -1.894702
H      0.273227    2.347917    0.471324
H     -0.072549    1.903561    2.198848
H     -1.393950    2.014008    1.043653
H      3.240430   -0.062988    1.842591
H      2.464638    1.469985    1.513838
H      0.709442   -0.281235   -1.884038
H     -0.967775   -0.515482   -2.320593
H      0.987922    0.106614    2.716704
H      1.212642   -1.313344    1.734856
H     -0.964315   -0.126632    1.771034
H     -3.782100    1.128048   -0.472972
H      1.152838   -3.153746   -0.634724
