32

C     -3.293541   -1.690397   -0.808073
C      5.507328    0.566284   -0.348585
C     -1.372578   -0.255595    1.708040
C     -0.041592   -0.104844    2.022433
C      1.406163    0.102132   -1.342092
C      2.746080    0.253934   -1.030844
C     -0.835109   -0.165861   -0.651032
C      2.249312    0.169030    1.320981
C     -3.597739    0.788956   -0.748515
C     -3.168152   -0.444468    0.027536
C     -1.744066   -0.283309    0.383013
C      0.493642   -0.015670   -0.311166
C      0.914121    0.017800    1.007635
C      3.168352    0.287737    0.277020
O     -3.460570    1.906775    0.072883
O      4.498091    0.437849    0.631942
H     -3.738269   -2.504844   -0.190484
H     -2.303960   -2.062060   -1.139102
H     -3.987280   -1.548092   -1.679780
H      5.529133    1.613271   -0.770695
H      6.475215    0.310403    0.134791
H      5.363012   -0.119522   -1.198373
H     -2.095666   -0.348960    2.526480
H      0.301857   -0.076996    3.056993
H      1.102493    0.078909   -2.375374
H      3.479455    0.348231   -1.826757
H     -1.125241   -0.187394   -1.695127
H      2.560646    0.193151    2.354959
H     -2.938331    0.963005   -1.623479
H     -4.632386    0.694297   -1.134203
H     -3.780408   -0.526370    0.942086
H     -3.680013    1.602617    0.998331
