45

C     -4.302510   -0.799472    0.557762
C     -3.222081   -1.705966    0.058993
C      1.258057    3.386616    0.887464
C      0.079800    3.496341    0.206579
C      1.949096    2.170030    0.955379
C      2.297027   -2.524478   -0.147206
C      3.512908   -2.610976    0.469519
C     -1.682985    2.404277   -1.194322
C     -2.435616   -1.215884   -1.118182
C     -2.478914    1.171742   -0.773264
C      0.260826   -1.291560   -0.784011
C     -0.419615    2.352459   -0.425075
C      1.598584   -1.303991   -0.167966
C      1.434624    1.080434    0.330619
C     -0.341282    0.021370   -1.107163
C      4.043247   -1.479193    1.071369
C      0.240893    1.147799   -0.372493
C      2.144344   -0.200627    0.430930
C      3.377622   -0.273899    1.061844
N     -1.760398   -0.015815   -0.863735
O      5.273884   -1.612421    1.684162
O      3.998069    0.764075    1.682601
Cl     0.685357    0.000000    0.000000
H     -5.138983   -1.466238    0.975436
H     -4.784782   -0.202529   -0.223247
H     -3.994716   -0.227669    1.466251
H     -2.559144   -1.900797    0.951837
H     -3.658027   -2.736605   -0.160791
H      1.653083    4.266592    1.378974
H     -0.517180    4.387625    0.102762
H      2.839443    2.191816    1.504157
H      1.817066   -3.365431   -0.640888
H      4.039367   -3.564377    0.475319
H     -1.428170    2.242961   -2.278427
H     -2.250518    3.329280   -1.076222
H     -3.192115   -1.050144   -1.954163
H     -1.792693   -2.035245   -1.556303
H     -3.401852    1.189199   -1.434567
H     -2.823320    1.388000    0.255432
H     -0.463256   -1.881745   -0.142652
H      0.348904   -1.944985   -1.706665
H     -0.179625    0.160096   -2.228741
H      5.787405   -2.472758    1.711399
H      4.873531    0.732093    2.137294
H     -0.685357    0.000000    0.000000
