29

C      4.903782   -0.956912   -0.389067
C     -5.186578    0.437286   -0.197996
C      3.487192   -0.860986   -0.894765
C     -3.120778    0.074449    1.180509
C     -2.859467    0.605289   -1.090935
C     -1.725672    0.015990    1.320273
C     -1.487145    0.548365   -0.955932
C      1.398162    0.418566   -0.629220
C     -3.705582    0.370368   -0.029074
C     -0.894213    0.252321    0.253569
C      2.798631    0.283452   -0.165032
C      0.580258    0.195865    0.378552
C      1.397280   -0.092751    1.539129
O      0.923097   -0.358825    2.704158
O      2.723161   -0.036304    1.197009
H      4.959499   -0.544245    0.645850
H      5.586282   -0.344597   -1.014369
H      5.189493   -2.030004   -0.416472
H     -5.436926    0.484707   -1.260885
H     -5.637593   -0.419845    0.336564
H     -5.584957    1.357276    0.274838
H      2.958189   -1.817629   -0.660610
H      3.413288   -0.695940   -1.978975
H     -3.760871   -0.114095    2.029660
H     -3.321480    0.839739   -2.049399
H     -1.310702   -0.219820    2.288162
H     -0.840101    0.737411   -1.807778
H      1.172322    0.665626   -1.659253
H      3.381428    1.205240   -0.281451
