56

C     -1.692563   -0.637387    3.870490
C      3.324879   -2.339079   -1.775834
C     -1.700166    0.084066    2.904523
C     -2.036798   -0.363120   -0.069883
C     -2.692647    0.456027    0.741492
C      1.303591   -1.272798   -0.710824
C     -2.039575    2.356452    2.202522
C      2.253471   -1.307780   -1.712526
C     -0.640076   -0.364743    0.438519
C      2.160111   -0.308723   -2.685784
C      0.282292    0.580093   -1.587864
C     -1.734378    0.954066    1.731507
N      1.174836    0.609774   -2.596372
N      0.337909   -0.363249   -0.633243
O     -2.100895    3.209804    1.127366
O      3.095785   -0.304940   -3.713649
O     -0.621325    1.459135   -1.545474
O     -0.518734    0.900199    1.063319
C     -2.490096   -0.060817    1.912546
C     -1.259839    0.168802    1.320202
C      3.595936   -1.027524    0.074395
C      0.671262    1.632276   -0.352173
C     -3.490863   -0.581506    1.127261
C      0.272112    0.159428   -0.538117
C      2.424347   -0.409893   -0.625910
C     -2.009522   -0.601533   -0.711211
N     -4.657290   -0.811196    1.643496
N     -3.216143   -0.838140   -0.173505
N     -1.006138   -0.088185    0.043108
O      4.737353   -0.802610   -0.693435
O     -1.750024   -0.873364   -2.051537
O      1.232512   -0.594425    0.086914
S      2.494370    1.429027   -0.532265
H     -1.691571   -1.294635    4.720767
H      4.302974   -1.859923   -1.977181
H      3.084287   -3.128702   -2.509492
H      3.376658   -2.825258   -0.765307
H     -2.369873   -0.928381   -0.917185
H     -3.752264    0.660589    0.616144
H      1.335655   -2.038232    0.078372
H     -2.929945    2.339067    2.831937
H     -1.160138    2.659028    2.843062
H     -0.432653   -1.141206    1.177101
H     -1.220160    3.593549    0.967336
H      3.301315    0.616306   -4.113838
H     -2.671201    0.158755    2.961293
H     -0.475124    0.575760    1.930992
H      3.426172   -2.123839    0.084698
H      3.713607   -0.658130    1.108225
H      0.296206    2.201237   -1.209359
H      0.403256    2.011288    0.628863
H      0.285504   -0.078595   -1.618816
H      2.373046   -0.738901   -1.661871
H     -5.427199   -1.205565    1.062927
H      4.753801    0.109624   -1.080284
H     -2.226044   -0.289793   -2.736437
