49

C     -4.765636    2.941862   -1.010422
C      5.424395    2.306363    0.397560
C     -3.803664   -1.702220    0.634855
C      3.246296   -1.981941   -0.766406
C     -5.176295   -1.592895    0.595978
C      4.590729   -2.263080   -0.735671
C     -3.520589    0.498668   -0.144781
C      3.635692    0.284896   -0.205965
C     -0.363827    0.902066   -0.940518
C      0.265542   -1.566986    1.422408
C     -2.947780   -0.681901    0.273500
C      2.753333   -0.718624   -0.505172
C     -0.673777    0.324785    0.400145
C     -5.738411   -0.411468    0.177396
C      5.481510   -1.260582   -0.436098
C     -4.894484    0.618775   -0.187479
C      4.974400    0.011894   -0.173729
C     -1.506914   -0.919638    0.357875
C      1.315129   -0.473653   -0.551162
C      0.681841   -0.274791    0.803398
O     -7.134456   -0.246019    0.118633
O      6.846990   -1.478736   -0.389056
O      1.388141    0.555503    1.633091
O     -5.489619    1.799826   -0.605933
O      5.875795    1.006820    0.124828
O      0.962014    0.680103   -1.224363
O     -1.121422   -1.552022    1.550575
H     -5.457925    3.591774   -1.588436
H     -3.901480    2.621658   -1.621782
H     -4.463511    3.482942   -0.094063
H      6.287516    2.870107    0.857006
H      5.116040    2.798550   -0.556713
H      4.602585    2.322792    1.141767
H     -3.409098   -2.663317    0.975365
H      2.582625   -2.817800   -1.010491
H     -5.848089   -2.398015    0.881116
H      4.972221   -3.242451   -0.938235
H     -2.880210    1.309726   -0.432028
H      3.234742    1.287604    0.000684
H     -0.499315    2.020574   -0.864100
H     -1.030730    0.530506   -1.748212
H      0.771767   -1.789360    2.386798
H      0.487442   -2.386438    0.678544
H     -0.983713    1.053831    1.159658
H     -1.181986   -1.528325   -0.488165
H      0.799919   -1.315985   -1.041544
H     -7.718749   -1.010567    0.389407
H      7.448846   -0.705101   -0.164045
H      0.766170    1.160292    2.080993
