48

C     -2.225567   -3.973993    0.822355
C      6.539659    2.231421   -1.076070
C     -2.309866    3.609549    0.944247
C     -2.744037    3.036975   -0.231500
C     -1.798755    2.767213    1.908162
C     -2.655509    1.683855   -0.399053
C     -1.705890    1.400163    1.746923
C      3.938406    1.229363   -1.155761
C      4.234989    0.260317    1.003526
C      2.651431    0.733809   -1.195586
C      2.944435   -0.215648    0.921963
C     -3.507046   -1.150224    0.184763
C     -3.489663   -2.480046   -0.531004
C     -1.083945   -2.503418   -0.698236
C     -0.084978   -0.348913   -1.222516
C     -2.144481    0.850547    0.567183
C     -1.371581   -1.024708   -0.904088
C      4.745929    0.996879   -0.052141
C      2.114038   -0.004458   -0.157566
C     -2.081846   -0.583387    0.316636
N     -2.277672   -3.203997   -0.399635
O      6.050746    1.487322    0.012031
O      0.843412   -0.508819   -0.166896
H     -3.195944   -3.934074    1.344237
H     -1.874513   -4.981241    0.585231
H     -1.470412   -3.496757    1.483977
H      7.573627    2.526583   -0.862120
H      6.436365    1.685049   -2.042232
H      5.908249    3.140027   -1.162690
H     -2.370310    4.694424    1.103261
H     -3.153714    3.646711   -1.022227
H     -1.451972    3.210600    2.843386
H     -3.024738    1.301389   -1.369965
H     -1.285663    0.768886    2.556427
H      4.353246    1.806081   -1.970551
H      4.884016    0.088710    1.860275
H      2.025603    0.916904   -2.056676
H      2.571552   -0.786397    1.758238
H     -4.021457   -0.448424   -0.508247
H     -3.997581   -1.231873    1.166648
H     -3.750094   -2.399171   -1.604789
H     -4.307312   -3.096645   -0.063800
H     -0.482893   -2.926764   -1.522988
H     -0.413234   -2.547351    0.208835
H     -0.182120    0.705995   -1.535625
H      0.363492   -0.874976   -2.094338
H     -2.072324   -0.967089   -1.762987
H     -1.644079   -1.090399    1.202935
