29

C      3.005897    1.362596    0.067441
C      1.751722    0.923533   -0.346758
C     -3.193443    0.344371    0.383585
C     -1.851786   -1.699061   -0.158990
C     -2.259332   -0.329179   -0.598590
C      3.804777    0.526774    0.817493
C     -0.940114    0.392244   -0.705912
C      0.043986   -0.737203   -0.447492
C      2.104661   -1.098629    0.705064
N      4.965370    0.934534    1.200139
N      3.338429   -0.685179    1.120575
N      1.319255   -0.300564   -0.022023
O     -3.524241    1.605738   -0.093897
O     -0.781833    1.322331    0.317625
O      1.739619   -2.383707    1.088927
O     -0.657604   -1.462417    0.537314
H      3.327347    2.355961   -0.210314
H      1.169490    1.624828   -0.933575
H     -2.766935    0.400440    1.400449
H     -4.131341   -0.242848    0.449600
H     -2.604338   -2.211286    0.464226
H     -1.587699   -2.295218   -1.047082
H     -2.777339   -0.399708   -1.569132
H     -0.783639    0.875525   -1.674173
H      0.045059   -1.382622   -1.345101
H      5.328562    1.863894    0.970415
H     -4.494173    1.691952   -0.284484
H     -1.249120    2.160362    0.161850
H      1.658760   -3.157462    0.414421
