29

C      2.988240    1.148915    0.624159
C      1.874626    0.385883    0.847097
C     -3.128322    0.447472   -0.617959
C     -1.316731    0.325164    1.110938
C     -2.156238   -0.436402    0.098294
C      3.493805    1.182676   -0.663055
C     -1.030729   -0.922940   -0.807332
C      0.089132   -1.104269    0.193310
C      1.764042   -0.275672   -1.352921
N      4.543528    1.895007   -0.899508
N      2.857128    0.468281   -1.590773
N      1.248737   -0.327595   -0.107333
O     -3.972604    1.009635    0.339243
O     -1.361712   -2.082994   -1.463153
O      1.174385   -0.988625   -2.406750
O     -0.404844   -0.693327    1.429622
H      3.436064    1.692685    1.433368
H      1.480189    0.360248    1.854071
H     -3.759956   -0.194899   -1.256417
H     -2.621556    1.251633   -1.169539
H     -1.883861    0.671498    1.964879
H     -0.793681    1.129499    0.550334
H     -2.655900   -1.293874    0.547741
H     -0.799553   -0.093089   -1.532834
H      0.336497   -2.198832    0.210464
H      4.934205    1.933187   -1.848336
H     -4.672728    1.573870   -0.034005
H     -0.922747   -2.859772   -1.036574
H      1.260583   -2.003363   -2.347984
