39

C      4.553442    1.304494    0.509462
C      4.007418   -0.077359    0.650541
C      3.511200   -0.627755   -0.681482
C      2.423669    0.218596   -1.259569
C      1.199845    0.327196   -0.347269
C      0.679410   -1.043313   -0.143265
C     -0.555175   -1.122432    0.770965
C     -1.686919   -0.349003    0.261478
C     -2.596851   -1.178319   -0.180621
C     -2.030707    1.115131    0.163414
C     -3.845037   -0.609024   -0.759619
C     -3.415084    1.243659    0.765959
C     -4.432279    0.407891    0.162988
C     -2.151451   -2.558049    0.065063
O     -1.188465    1.846605    1.017984
O     -3.510013    0.063698   -1.956863
O     -2.832958   -3.569739   -0.263929
O     -0.938259   -2.462253    0.676338
O     -4.362280    1.757117   -0.164473
H      5.546904    1.444062    0.954172
H      4.564876    1.648595   -0.549021
H      3.861100    1.993093    1.065041
H      3.163726   -0.170012    1.364304
H      4.831161   -0.761175    0.997399
H      3.211589   -1.676758   -0.566057
H      4.385252   -0.649050   -1.400665
H      2.131565   -0.261535   -2.234152
H      2.799286    1.223392   -1.538256
H      1.536024    0.773504    0.587196
H      0.462406    0.950688   -0.909913
H      1.458117   -1.635007    0.425058
H      0.445074   -1.583627   -1.059709
H     -0.267991   -0.832824    1.810952
H     -1.922963    1.512966   -0.839547
H     -4.547923   -1.423546   -1.026247
H     -3.531037    1.526078    1.823839
H     -5.292894    0.056481    0.787177
H     -1.649190    2.265966    1.767269
H     -4.014589    0.911570   -2.028637
