76

C     -5.594980   -1.379151    0.855099
C     -2.748843    0.004093    1.561398
C      1.264124    0.368443    1.897192
C     -6.729257   -0.387498   -1.670752
C     -7.568148    0.779341    0.264860
C      8.289315   -0.828447   -2.268756
C      6.932901   -0.864560   -2.127357
C      9.067075   -0.455141   -1.192091
C      6.318626   -0.527825   -0.903743
C      8.473343   -0.125834    0.002961
C      0.232161    2.107315   -0.479490
C      1.556927    1.759785   -1.025144
C     -4.073125    1.521212   -1.077913
C     -2.792189    2.088021   -0.509308
C     -0.685276   -1.537736    0.108086
C      3.510514   -1.193100    1.252133
C     -2.112482   -1.470853   -0.290397
C      2.200671   -1.501082    0.668007
C     -5.310340   -0.054189    0.255614
C      7.080791   -0.158333    0.163431
C     -0.605226    0.971403    0.039399
C     -4.077814    0.060534   -0.585520
C     -1.907707    0.887605   -0.626337
C      0.131019   -0.349495   -0.212069
C      2.302496    0.673312   -0.361238
C      4.126809   -0.003163    1.197482
C      3.431935    1.100306    0.487928
C      6.526548    0.202680    1.447374
C     -2.776519   -0.164705    0.085729
C      1.427051   -0.228816    0.501327
N      5.343947    0.241159    1.783487
N     -6.434387    0.439821   -0.555853
O      3.789780    2.292423    0.612148
O      7.479642    0.568753    2.480275
H     -6.535040   -1.805934    0.381881
H     -4.824711   -2.138342    0.806525
H     -5.915429   -1.248014    1.932435
H     -2.594653    1.042668    1.921104
H     -1.940395   -0.635649    1.995501
H     -3.677824   -0.415948    1.990846
H      1.288260    1.460959    1.897397
H      2.094656    0.016571    2.578699
H      0.350465   -0.064770    2.351573
H     -7.785149   -0.769946   -1.548906
H     -6.052445   -1.251104   -1.815350
H     -6.751308    0.167977   -2.641066
H     -8.245149   -0.065446    0.396749
H     -7.154477    1.069302    1.267210
H     -8.022797    1.688733   -0.160282
H      8.793006   -1.080771   -3.194517
H      6.319736   -1.158430   -2.974893
H     10.156497   -0.416139   -1.274264
H      5.260634   -0.576223   -0.859624
H      9.114687    0.157172    0.809070
H     -0.360883    2.589877   -1.312112
H      0.324368    2.936189    0.276565
H      1.456287    1.541047   -2.128757
H      2.194994    2.683244   -1.001371
H     -4.913909    2.102797   -0.719135
H     -3.999462    1.480938   -2.198350
H     -2.999504    2.434851    0.502736
H     -2.427544    2.957621   -1.095574
H     -0.235625   -2.407103   -0.464333
H     -0.528172   -1.850667    1.182641
H      4.068899   -1.965642    1.785887
H     -2.133616   -1.493612   -1.420828
H     -2.620928   -2.366166    0.055550
H      1.646372   -2.251364    1.253086
H      2.396612   -1.902889   -0.367630
H     -5.258100    0.726916    1.079072
H     -0.738453    1.144474    1.125174
H     -4.139503   -0.640625   -1.456035
H     -1.869885    0.585736   -1.678943
H      0.330796   -0.351587   -1.315122
H      2.744130   -0.008614   -1.147524
H      7.115178    0.576781    3.406958
