58

C      3.009152    0.546457    1.579901
C      4.045759    0.366200   -1.671067
C     -0.893767    5.257070    0.164514
C     -4.257369    1.930058    0.787989
C     -1.806227   -1.236597    2.450974
C     -2.225510   -0.025993   -1.994677
C      2.492001   -1.725821    0.889040
C      0.906923   -3.329860    0.295022
C      0.196391    2.615327   -0.181003
C      2.022519    1.424154   -0.960930
C     -2.089542   -5.015031   -0.924849
C      3.099429   -0.442117    0.410917
C      1.120196   -1.989692    0.421175
C      0.687438    1.364055   -0.335530
C     -1.033990    2.827818    0.411730
C     -0.305013   -3.819191   -0.161156
C      0.062683   -1.150058    0.070350
C     -0.106003    0.310497    0.129604
C     -1.801848    1.741515    0.870920
C     -1.341554   -2.931878   -0.506790
C     -1.329838    0.455365    0.731465
C     -1.160502   -1.574432   -0.394502
C      2.732039    0.100140   -0.888165
O      2.108173   -0.886073   -1.682876
O     -1.560803    4.099836    0.579024
O     -3.033917    1.908205    1.468134
O     -1.962110   -0.695811    1.155412
O     -2.086386   -0.608201   -0.721687
O     -0.788037   -5.088706   -0.379607
O     -2.443143   -3.639696   -0.930782
H      3.727641    0.166306    2.370416
H      2.014436    0.626632    2.010286
H      3.458678    1.501148    1.243564
H      3.853141    0.447502   -2.740779
H      4.420852    1.327267   -1.276058
H      4.769781   -0.406996   -1.388040
H     -1.541260    6.128440    0.377497
H     -0.809901    5.207122   -0.955990
H      0.080548    5.328806    0.654371
H     -4.747899    0.938535    0.958636
H     -4.134909    2.031716   -0.309540
H     -4.968631    2.684684    1.189803
H     -0.940355   -1.921178    2.446179
H     -1.501651   -0.395708    3.141221
H     -2.735621   -1.700290    2.827417
H     -3.207973   -0.350696   -2.392520
H     -1.415147   -0.304615   -2.668186
H     -2.242577    1.087761   -1.949526
H      3.120028   -2.567593    0.482688
H      2.529379   -1.774032    2.005969
H      1.717779   -4.013982    0.563160
H      0.794654    3.449223   -0.535135
H      2.692290    2.182768   -0.504611
H      1.831291    1.715706   -2.036136
H     -2.073330   -5.456384   -1.928103
H     -2.769860   -5.536675   -0.225102
H      4.217390   -0.672140    0.379586
H      1.604082   -0.510865   -2.423620
