58

C     -3.447817   -1.991707    1.188573
C     -3.002937   -0.087449   -1.776311
C      2.959366   -4.178728   -1.612293
C      4.141495   -1.325652    2.016811
C      1.576537    1.174110    2.573050
C      1.965701    1.668654   -2.027906
C     -2.767145    0.322510    0.946039
C     -2.006057    2.519585    0.980158
C      0.987524   -2.225931   -1.181602
C     -1.179269   -1.749232   -1.653492
C     -0.015206    5.560408    0.422446
C     -2.438628   -1.095406    0.457805
C     -1.636857    1.237643    0.683038
C      0.027937   -1.279156   -0.978234
C      2.250607   -2.086274   -0.617731
C     -1.118415    3.567735    0.766613
C     -0.351060    1.034514    0.166501
C      0.382889   -0.175030   -0.182493
C      2.547030   -0.966610    0.170968
C      0.146579    3.312640    0.246543
C      1.605367    0.004980    0.399452
C      0.552683    2.037201   -0.066945
C     -2.458814   -1.269722   -1.007341
O     -3.393775   -2.308747   -1.270281
O      3.238916   -3.051842   -0.825627
O      3.800517   -0.823689    0.733934
O      1.798427    1.122482    1.179788
O      1.763883    1.687938   -0.605322
O     -1.186372    4.937948    0.961897
O      0.863339    4.498195    0.115166
H     -3.600837   -2.938035    0.666247
H     -4.437184   -1.490728    1.271540
H     -3.117612   -2.213895    2.218626
H     -3.215409   -0.491926   -2.812763
H     -3.999124    0.202661   -1.396806
H     -2.303399    0.729444   -1.927625
H      3.786840   -4.913337   -1.538175
H      2.866956   -3.932087   -2.693204
H      2.046216   -4.677585   -1.220362
H      3.335279   -2.021638    2.392341
H      4.120959   -0.460387    2.711136
H      5.124127   -1.814757    2.028778
H      0.557728    1.570951    2.737566
H      1.540874    0.139525    3.015320
H      2.283818    1.829882    3.087158
H      2.168154    0.646506   -2.328285
H      2.868063    2.285919   -2.286602
H      1.084979    2.133224   -2.505388
H     -3.702324    0.708243    0.546412
H     -2.882562    0.281830    2.068373
H     -2.999930    2.711290    1.384478
H      0.823128   -3.120800   -1.780864
H     -1.139763   -2.856953   -1.693098
H     -1.163474   -1.387988   -2.702208
H      0.392656    6.187116    1.248613
H     -0.272316    6.163898   -0.475828
H     -1.458216   -1.347898    0.945842
H     -4.314071   -1.993842   -1.164426
