63

C     -2.944736    1.091349   -1.054317
C     -2.001502    4.243251    0.056556
C     -3.901130   -3.960646    1.525708
C      4.161045    3.603263   -1.514685
C     -0.598183   -4.567821   -1.801064
C      4.812735   -1.043489   -0.601109
C      1.250308   -1.508708   -2.424103
C      1.527261   -1.610353    2.184516
C     -2.402220    0.828271    1.366690
C     -2.413332   -1.498240    1.083578
C      1.753007    2.358960   -0.993270
C     -0.537168    2.673931   -1.100277
C     -2.572075    1.827470    0.191051
C     -1.687649   -0.370100    0.864363
C      0.565019    1.744875   -0.746479
C     -1.957011   -2.733142    0.621619
C      2.931080    1.720440   -0.670134
C     -0.475139   -0.499169    0.165111
C      0.578856    0.454339   -0.161944
C     -0.742295   -2.803476   -0.076339
C      2.909101    0.450843   -0.089726
C      0.007629   -1.683230   -0.313486
C      1.734382   -0.193739    0.173170
C     -1.494491    2.818375    0.072654
O     -0.682972    2.710020    1.222712
O     -2.678709   -3.883358    0.839594
O      4.132541    2.323389   -0.915177
O     -0.291364   -4.027009   -0.533855
O      4.087995   -0.201482    0.241588
O      1.191701   -1.662898   -1.012286
O      1.614076   -1.426758    0.762709
H     -4.002645    0.718838   -0.912170
H     -2.944094    1.790414   -1.910432
H     -2.348325    0.197255   -1.269125
H     -1.981932    4.594272   -0.994173
H     -3.082711    4.284972    0.349105
H     -1.404945    4.903907    0.719314
H     -4.717828   -3.525376    0.947999
H     -3.779942   -3.351535    2.469759
H     -4.131737   -5.008527    1.837571
H      3.557497    3.581390   -2.425264
H      3.804931    4.360647   -0.784329
H      5.212694    3.851756   -1.836635
H     -1.275622   -3.904687   -2.341270
H      0.377985   -4.613202   -2.363559
H     -0.991614   -5.607999   -1.731344
H      4.548303   -0.854037   -1.661959
H      5.900117   -0.824310   -0.406275
H      4.669921   -2.094255   -0.353283
H      0.277302   -1.234315   -2.828498
H      1.647859   -2.475217   -2.817248
H      2.019913   -0.757465   -2.633591
H      0.536277   -1.353329    2.576442
H      2.316266   -0.992399    2.605876
H      1.780745   -2.681939    2.406364
H     -1.741558    1.296347    2.125012
H     -3.381070    0.522951    1.748405
H     -3.358688   -1.405583    1.628816
H      1.804426    3.340011   -1.437432
H     -0.057927    3.669772   -1.221988
H     -1.021791    2.442316   -2.046954
H     -3.501742    2.398852    0.500007
H     -0.606826    3.555314    1.716994
