42

C      5.250105    1.163907    0.576555
C      2.085703    1.832218    0.078928
C      0.798716    1.666988   -0.125985
C      2.451493   -0.661342    0.110710
C     -2.945359   -1.218275    0.898038
C     -2.049068    1.243340   -0.014230
C     -0.161511   -1.563920   -1.574328
C     -5.608058    1.173159    0.527936
C      3.028423    0.698594    0.061407
C     -1.632913   -1.042318    0.499581
C     -1.185940    0.179821    0.046484
C     -3.813132   -0.139229    0.834714
C     -3.362260    1.072261    0.383056
C      0.990964   -0.755380    0.300086
C      0.282243   -0.110503   -1.820253
C     -0.748269   -2.245883    0.582411
C      0.220710    0.370965   -0.380646
N      0.386386   -1.926230   -0.303746
O      1.542732   -0.156735   -2.351172
O     -0.202160   -2.399026    1.853048
O      3.992913    0.897872    1.086728
O     -5.172180   -0.018091    1.164500
O     -4.426597    1.958433    0.424783
H      5.260232    2.077168   -0.050823
H      5.545420    0.287362   -0.064293
H      5.989056    1.240337    1.389103
H      2.496133    2.855863    0.274996
H      0.168702    2.573988   -0.095106
H      2.921941   -1.191396    0.997121
H      2.825423   -1.279506   -0.756514
H     -3.326502   -2.165735    1.258788
H     -1.764609    2.236147   -0.366876
H     -1.288680   -1.500844   -1.559492
H      0.103618   -2.216766   -2.402849
H     -6.404365    1.691360    1.082159
H     -5.927464    0.943055   -0.506821
H      3.630197    0.828332   -0.884666
H      0.763638   -0.667692    1.385271
H     -0.423813    0.419204   -2.471907
H     -1.222313   -3.149927    0.201211
H      1.670428   -1.013889   -2.853887
H     -0.739984   -1.987687    2.565980
