41

C      4.717271   -1.487595   -1.262970
C      4.358306    0.737935   -0.009167
C     -0.829707    0.905376    2.089794
C     -2.291127   -2.272611   -0.064041
C     -3.659575   -2.420633   -0.219855
C      2.705859   -1.049792    0.004317
C      1.803154   -0.230090    0.870986
C     -0.872065    1.959259   -0.187511
C     -0.218745   -1.198902    0.113534
C      3.881438   -0.614781   -0.405866
C     -0.075391    1.135477    0.823866
C     -1.668927   -1.042738   -0.075041
C     -4.430930   -1.264036   -0.395244
C     -3.841801   -0.030476   -0.410584
C     -2.478576    0.053326   -0.250788
C     -3.301305    2.081402   -0.493171
Br    -6.310573   -1.448255   -0.610013
N     -4.339465    1.198339   -0.557584
N      0.515816    0.011685    0.216912
N     -2.179912    1.356600   -0.305841
S     -3.412839    3.856889   -0.631466
H      5.121474   -2.339327   -0.659981
H      5.594112   -0.936710   -1.654141
H      4.100857   -1.906451   -2.064678
H      5.345835    0.977264   -0.409418
H      3.630470    1.493938   -0.389473
H      4.363045    0.835825    1.109904
H     -1.417880    1.839137    2.300518
H     -0.107742    0.793534    2.911399
H     -1.512985    0.067412    2.111753
H     -1.693519   -3.169712    0.071227
H     -4.156832   -3.373549   -0.212620
H      2.372983   -2.032796   -0.290064
H      2.296089    0.733327    1.128765
H      1.648732   -0.764671    1.838629
H     -0.906894    3.020004    0.084128
H     -0.360734    1.795251   -1.178864
H      0.165716   -1.767330   -0.766216
H     -0.038394   -1.816680    1.010318
H      0.772455    1.836225    1.105351
H     -3.287693    4.478931    0.624029
