42

C      3.525262   -0.293776    1.925139
C      3.573918    2.228853    1.626411
C      0.766461   -3.000043   -0.240517
C     -3.241494    2.102407   -1.833522
C     -4.085605    1.592607   -0.854069
C      2.407382    0.830945    0.033647
C      1.967485   -0.505611   -0.446106
C     -1.065320    2.140194   -2.979000
C     -0.905951   -1.641046    1.014673
C     -0.052837    0.280808   -1.494003
C      3.130292    0.908142    1.137004
C     -0.091877   -1.775396   -0.254889
C     -1.952338    1.621259   -1.971257
C     -1.454150    0.623986   -1.149646
C     -3.600792    0.606497   -0.037569
C     -2.303542    0.130600   -0.185009
C     -3.234341   -0.936052    1.441260
N     -0.357703    2.544999   -3.795154
N     -4.150158   -0.069582    0.972501
N      0.555465   -0.546130   -0.496207
N     -2.074410   -0.825567    0.730516
S     -3.469844   -1.959100    2.667025
H      4.107489   -0.960296    1.246363
H      4.205427   -0.029818    2.753630
H      2.643621   -0.876735    2.272088
H      2.836558    2.676573    2.339613
H      3.773441    2.920470    0.760194
H      4.539665    2.103116    2.143324
H      0.059264   -3.879866   -0.196101
H      1.315614   -3.131792   -1.193716
H      1.473002   -3.083131    0.578133
H     -3.622144    2.884799   -2.482610
H     -5.081072    2.008338   -0.795597
H      2.158877    1.750593   -0.486273
H      2.315941   -1.252020    0.291212
H      2.460275   -0.650853   -1.443155
H     -0.292331   -1.051933    1.745274
H     -1.183070   -2.625684    1.439828
H      0.487339    1.234785   -1.654592
H     -0.101609   -0.218439   -2.494959
H     -0.843132   -1.932795   -1.085957
H     -5.139060    0.055696    1.340898
