38

C      1.541922    2.246793   -0.586845
C      4.039824   -1.340561    1.602636
C      3.114832   -2.474117    1.241963
C     -1.961944   -1.934977   -1.305048
C     -4.075321   -0.801925   -1.493530
C     -0.599873    1.820329    0.625297
C      2.181185   -0.253335    0.261965
C      0.027671   -1.126456   -0.363841
C      0.417046    1.257034   -0.369997
C      2.518770   -1.135154    1.438665
C     -1.369959   -0.855785   -0.686468
C     -3.272737   -1.922631   -1.701401
C     -3.510463    0.287923   -0.879363
C     -2.188514    0.249010   -0.490036
C     -3.007016    2.199807    0.047599
Cl    -3.959337   -3.339579   -2.484710
N     -3.980870    1.493887   -0.535518
N      0.807377   -0.019995    0.048802
N     -1.895696    1.446018    0.083030
S     -3.136252    3.877781    0.689338
H      1.168298    3.153333   -1.144473
H      1.939640    2.578566    0.401363
H      2.348965    1.846243   -1.202244
H      4.456181   -1.278464    2.618547
H      4.698494   -1.012749    0.784118
H      2.963323   -3.199595    2.072418
H      3.185489   -2.911014    0.233485
H     -1.380443   -2.808579   -1.481450
H     -5.109964   -0.817940   -1.817504
H     -0.507331    1.258317    1.583201
H     -0.490663    2.896558    0.780330
H      2.720518    0.703871    0.433244
H      2.618311   -0.729598   -0.645763
H      0.503551   -1.605243   -1.244805
H      0.028421   -1.871942    0.486310
H     -0.057935    1.144690   -1.392498
H      1.952383   -0.901284    2.352438
H     -2.727884    3.880764    2.040745
