41

C     -4.018763   -0.212988    1.119717
C     -4.794754    0.668531   -1.182463
C     -0.320615   -0.584752    2.454174
C     -2.570330   -0.340181   -0.810394
C     -1.544186   -0.973602    0.055833
C      2.040972   -0.759112   -2.593001
C      4.359752   -0.440766   -2.038535
C      1.304061    0.929390    1.472583
C      0.229457   -0.226811   -1.229195
C     -3.759296    0.029850   -0.316661
C      0.451428   -0.322429    1.194683
C      1.672483   -0.243978   -1.357581
C      3.381451   -0.847779   -2.910878
C      4.010843    0.065433   -0.824381
C      2.655503    0.160237   -0.491114
C      3.789336    0.916763    1.189899
F      3.745020   -1.348500   -4.116972
N      4.670805    0.545179    0.244644
N     -0.356505   -0.159035    0.047352
N      2.547321    0.681886    0.743410
S      4.224080    1.619021    2.790880
H     -3.309299    0.324728    1.788340
H     -5.075669    0.101535    1.363121
H     -4.002050   -1.311166    1.370980
H     -5.772902    0.171423   -0.997380
H     -4.547599    0.455044   -2.240983
H     -4.823904    1.759592   -1.017119
H     -0.684165   -1.635137    2.529332
H     -1.091812    0.172829    2.680110
H      0.427644   -0.490519    3.298379
H     -2.358910   -0.172443   -1.861844
H     -1.980895   -1.093994    1.064088
H     -1.349775   -1.977822   -0.382254
H      1.290380   -1.088124   -3.304209
H      5.415412   -0.522672   -2.311936
H      1.458030    1.105308    2.535674
H      0.768580    1.767210    0.959327
H     -0.193685   -1.083389   -1.848894
H     -0.156864    0.672193   -1.810602
H      1.165763   -1.189900    1.099307
H      3.103655    1.569243    3.644564
