40

C      0.328080   -1.564359    1.512623
C      4.801987    0.295166   -0.344058
C      4.091350    1.494862    0.161389
C     -1.644856    2.055153    0.249420
C     -3.880827    1.209405    0.082575
C     -0.505921   -2.149572   -0.790952
C      2.365399   -0.158336   -0.868237
C      0.364829    0.905465   -0.065789
C      0.623019   -1.517464    0.034020
C      3.367526    0.203951    0.196424
C     -1.104932    0.812694   -0.061612
C     -3.010461    2.268813    0.324967
C     -3.352036   -0.021203   -0.225529
C     -1.993943   -0.206638   -0.294056
C     -2.942480   -2.119874   -0.743343
N     -3.906554   -1.225115   -0.509243
N      1.028174   -0.266231   -0.463605
N     -1.755515   -1.487429   -0.609674
N     -3.538474    3.560015    0.647641
O     -4.890669    3.738290    0.711944
O     -2.798880    4.524652    0.871337
S     -3.192656   -3.827588   -1.155574
H     -0.124687   -2.581875    1.707161
H      1.314302   -1.602589    2.062323
H     -0.334225   -0.778873    1.876165
H      4.965017    0.251118   -1.420715
H      5.590828   -0.211109    0.248376
H      3.772330    2.271323   -0.576505
H      4.468585    1.906666    1.116350
H     -1.016099    2.899380    0.444822
H     -4.946793    1.381210    0.142180
H     -0.148577   -2.149987   -1.832354
H     -0.591922   -3.190322   -0.468022
H      2.460216    0.576950   -1.690598
H      2.695621   -1.166212   -1.258781
H      0.619486    1.715831   -0.813295
H      0.707016    1.333023    0.908720
H      1.486510   -2.237463   -0.116080
H      3.243516   -0.266081    1.191248
H     -2.613282   -4.675646   -0.181665
