43

C      0.108403   -4.605078    0.809816
C      2.362058    0.855739    3.265316
C      3.466497    1.979473    1.310154
C     -0.503599    2.204762    0.601414
C     -0.132030   -3.676448   -0.236656
C      0.077117   -2.838397   -2.438630
C     -0.065656   -1.819664   -3.388727
C      1.660168    0.424626    0.929026
C      0.561350   -0.530096    1.223129
C     -2.392346    1.100415   -0.395678
C     -1.496532   -1.496014    0.621985
C      2.381093    0.964060    1.833478
C     -1.423058    0.938559    0.774406
C     -0.370953   -2.778018   -1.234998
C     -1.093896   -1.618513   -0.743979
C     -0.713558   -0.678984   -3.045515
C     -1.220806   -0.601605   -1.741336
C     -1.753456    1.258598   -2.700618
N     -1.049719    0.471701   -3.611757
N     -0.780028   -0.200521    1.024883
N     -1.808091    0.565267   -1.616184
S     -2.342294    2.886393   -3.145345
H      0.291394   -5.323236    1.648301
H      2.171670   -0.184235    3.639196
H      1.475253    1.489374    3.683269
H      3.243969    1.359405    3.773017
H      3.332609    2.921808    1.815532
H      3.375594    2.032658    0.215500
H      4.428689    1.517380    1.543077
H      0.176613    2.126186   -0.210608
H     -1.158200    3.049500    0.418311
H      0.001901    2.412825    1.586763
H      0.617988   -3.776825   -2.770830
H      0.353018   -1.938466   -4.387988
H      1.880379    0.630474   -0.135549
H      0.766620   -1.151512    2.086028
H      0.762441   -1.368030    0.316452
H     -2.642702    2.164522   -0.521036
H     -3.341887    0.539636   -0.175951
H     -2.589846   -1.118966    0.581935
H     -1.322702   -2.272582    1.337195
H     -2.040127    1.226291    1.702312
H     -3.253339    2.857540   -4.239113
