44

C      4.819890   -1.419611    1.020871
C      3.823276    0.923808    1.276693
C     -1.383824    3.450121    0.073390
C     -0.379346   -0.959311   -2.407294
C     -3.451954    2.323671    0.912676
C     -4.201252    1.204398    1.194883
C      2.856633   -0.757696   -0.223889
C      1.847656    0.263608   -0.561668
C     -0.916146   -2.111872   -0.320608
C     -0.294943    1.103711   -0.466965
C      3.791576   -0.407691    0.663675
C     -2.192888    2.236007    0.373450
C      0.089609   -1.218620   -1.004172
C     -1.662670    1.010624    0.106070
C     -3.665170   -0.021954    0.925479
C     -2.381891   -0.122617    0.374726
C     -3.113562   -2.128614    0.616260
N     -4.067921   -1.299249    1.052305
N      0.480997   -0.086827   -0.249907
N     -2.057383   -1.404113    0.191269
S     -3.299850   -3.921669    0.635926
H      4.802739   -2.312686    0.377027
H      4.607120   -1.749493    2.065581
H      5.808654   -0.920509    0.944004
H      3.933860    1.749317    0.521086
H      2.932811    1.164025    1.904743
H      4.720135    1.003491    1.942119
H     -0.593781    3.627208    0.841971
H     -0.979942    3.384712   -0.957975
H     -2.069780    4.314941    0.110103
H      0.455372   -1.008728   -3.168793
H     -1.078291   -1.795629   -2.715041
H     -0.919698   -0.041191   -2.584424
H     -3.886981    3.309195    1.132958
H     -5.196080    1.230407    1.620770
H      2.883228   -1.742008   -0.649221
H      2.113503    1.277485   -0.228133
H      1.851198    0.338556   -1.705460
H     -1.275434   -2.846076   -1.069511
H     -0.486971   -2.718011    0.503717
H     -0.334813    1.498697   -1.470478
H      0.225041    1.887481    0.163570
H      0.990900   -1.853535   -1.109491
H     -3.143626   -4.453752   -0.652294
