41

C      4.030639   -0.721037   -0.636458
C      4.889975    1.504684    0.268016
C     -0.291725   -1.855439   -0.760582
C     -3.649231    2.274736   -0.697706
C     -4.472167    1.177543   -0.442526
C      2.559375    1.175295   -0.270757
C      1.429252    0.322555   -0.764529
C     -0.915642   -1.467047    1.546009
C     -0.307324    1.304873    0.567459
C      3.764544    0.671023   -0.218439
C      0.128169   -1.125996    0.525531
C     -1.751302    1.180172    0.238989
C     -2.314687    2.268748   -0.360464
C     -3.884003    0.089191    0.162577
C     -2.529959    0.072465    0.509010
C     -3.364004   -1.849698    1.108416
I     -1.146904    3.959579   -0.779518
N     -4.359033   -1.107327    0.547220
N      0.413608    0.171463    0.243723
N     -2.249779   -1.114870    1.077956
S     -3.469020   -3.492236    1.772947
H      3.440094   -1.478438   -0.084687
H      5.107336   -0.964019   -0.474637
H      3.785167   -0.821878   -1.732240
H      4.515431    2.387832    0.831979
H      5.459570    1.827082   -0.632138
H      5.516895    0.877728    0.939065
H     -0.829416   -1.177852   -1.452175
H      0.621432   -2.217092   -1.268778
H     -0.949871   -2.699928   -0.520301
H     -4.123270    3.127559   -1.175218
H     -5.520938    1.170257   -0.702337
H      2.392359    2.205079    0.044058
H      1.874399   -0.644643   -1.068549
H      1.009555    0.757665   -1.708865
H     -0.653813   -0.963557    2.482276
H     -0.907366   -2.561315    1.690159
H      0.070265    2.174806   -0.032765
H     -0.223350    1.604862    1.658031
H      1.060025   -1.671011    0.863419
H     -4.155284   -4.371814    0.914703
