43

C     -0.224282    3.994810   -1.107821
C      3.836706    1.520207    1.283403
C      4.343227    0.392678   -0.889405
C     -1.307791   -1.709318   -2.659871
C     -0.770981    3.170029   -0.424340
C     -2.176256    2.493109    1.479029
C     -2.804613    1.474860    2.210663
C      2.289190   -0.065151    0.179302
C      1.057670   -0.834055    0.067311
C     -1.281657   -2.386415   -0.314643
C     -0.354710    0.652530   -1.119507
C      3.325486    0.581920    0.273626
C     -0.504178   -1.767565   -1.415552
C     -1.402786    2.174388    0.398702
C     -1.256835    0.858855    0.056685
C     -2.665645    0.149479    1.874844
C     -1.871994   -0.150816    0.769962
C     -2.663980   -2.002844    1.631100
N     -3.123341   -1.003411    2.362700
N      0.247207   -0.593149   -1.082604
N     -1.881756   -1.485345    0.632666
S     -2.996253   -3.751556    1.883761
H      0.252244    4.708475   -1.702276
H      4.408415    2.324709    0.825955
H      4.539462    0.959118    1.952573
H      3.002094    1.907291    1.909719
H      5.262024    0.077012   -0.392591
H      3.983057   -0.364800   -1.576052
H      4.439035    1.383167   -1.389103
H     -0.621681   -1.710622   -3.545475
H     -1.873501   -2.665407   -2.761750
H     -2.067555   -0.914919   -2.709908
H     -2.311877    3.517232    1.779929
H     -3.414563    1.708390    3.071109
H      1.873229    0.503396    1.412046
H      0.438723   -0.809890    0.975994
H      1.407831   -1.934851    0.061568
H     -2.151548   -2.946610   -0.780505
H     -0.711461   -3.199533    0.224239
H      0.453520    1.439047   -0.987134
H     -0.881831    0.951275   -2.034172
H      0.319142   -2.532745   -1.642511
H     -4.157187   -4.112975    1.218331
