48

C     -2.001434    4.425613    0.241953
C      2.506213    2.544947    0.764829
C      3.926253    1.760857   -1.183992
C      2.339989   -2.760107    0.473569
C     -2.720801    3.113521    0.022498
C     -4.165499   -0.717508   -0.506668
C     -3.623771    0.533878   -0.324075
C      2.719729    0.187551    0.291720
C      1.854798   -0.200059    1.412868
C      0.034789   -3.134669   -0.053218
C     -0.067697    0.068320    0.177780
C      3.036646    1.430095   -0.031006
C      1.041708   -2.059416    0.086253
C     -1.444911   -0.358419   -0.063207
C     -3.316703   -1.802570   -0.463642
C     -2.288339    0.732105   -0.104416
C     -1.958358   -1.604527   -0.240657
C     -2.256828   -3.712788   -0.451973
N     -3.459354   -3.127882   -0.590138
N      0.704748   -0.950606    0.912768
N     -1.318165   -2.766031   -0.234009
O     -1.827754    2.029375    0.070146
S     -2.003185   -5.489117   -0.551767
H     -2.532928    4.991375    1.009999
H     -1.991056    5.013464   -0.690155
H     -0.944313    4.230487    0.562508
H      1.426292    2.685524    0.618489
H      2.716441    2.329619    1.853039
H      3.032377    3.504957    0.528831
H      4.168893    0.857800   -1.778032
H      4.892109    2.120350   -0.758677
H      3.516273    2.582401   -1.793089
H      2.972650   -2.967646   -0.435629
H      2.140823   -3.801568    0.874701
H      2.888507   -2.269929    1.284066
H     -3.198557    3.134629   -0.962986
H     -3.502814    2.955990    0.786889
H     -5.221648   -0.858182   -0.678275
H     -4.334627    1.369063   -0.364893
H      3.170284   -0.582162   -0.371314
H      1.421742    0.780015    1.801160
H      2.338033   -0.635777    2.282576
H      0.346196   -3.754995   -0.948308
H      0.143348   -3.860782    0.802682
H      0.473873    0.463497   -0.690049
H     -0.131496    0.918738    0.919733
H      1.237313   -1.628486   -0.944883
H     -0.739788   -5.720947   -1.171029
