73

C      4.782103   -0.558039   -1.017204
C      3.816547   -0.111647    1.307921
C      0.390730    2.285506   -0.770060
C     -3.649550   -2.406383   -1.282404
C     -4.340771   -1.818545   -0.247289
C      2.399811   -0.906250   -0.519579
C      1.194600   -0.904646    0.350372
C     -1.154276    1.607064    1.082576
C     -0.493437   -0.434348   -1.330809
C      3.598021   -0.540021   -0.095744
C      0.064671    1.247909    0.324784
C     -1.873137   -0.863861   -0.893795
C     -2.383170   -1.907207   -1.604636
C     -3.825058   -0.765766    0.469166
C     -2.574929   -0.284081    0.138801
C     -3.326446    0.911896    1.820902
Cl    -1.477848   -2.621087   -2.910675
N     -4.259562   -0.012078    1.504942
N      0.186137   -0.071850   -0.145734
N     -2.286658    0.743970    0.976804
S     -3.480695    2.114843    3.126567
C      3.831708   -1.871645   -0.632824
C     -1.074802    1.428767   -0.328897
C      1.627865   -0.797931   -0.049778
C     -3.359026   -1.487258   -0.557650
C      3.005679   -0.719129   -0.206213
C     -2.281576    0.747485   -0.944044
C     -2.458992   -0.413756   -0.017922
C     -0.497457    0.297625    0.529177
C      3.676304    0.474471    0.038144
C      1.608160    1.407702    0.564685
N     -3.369715    4.048364   -0.955839
N      2.922754    1.516157    0.424653
N     -3.429078    1.622983   -0.997468
N     -3.238697    2.825929   -1.173437
N      0.917522    0.272520    0.339125
O     -3.323364   -2.546458    0.379351
O      5.059860    0.575516   -0.112864
O      0.981990    2.455915    0.936529
O     -1.144933   -0.848415    0.144662
H      5.342972    0.399771   -0.858810
H      4.450482   -0.554338   -2.094846
H      5.472014   -1.382763   -0.779818
H      4.919627   -0.187557    1.558409
H      3.332251   -0.780760    2.058477
H      3.530092    0.958213    1.414833
H      1.380506    2.063496   -1.214972
H      0.498563    3.248089   -0.217042
H     -0.407398    2.357016   -1.511556
H     -4.078176   -3.245681   -1.845981
H     -5.318230   -2.164402    0.042854
H      2.310952   -1.218165   -1.560154
H      0.820379   -1.953791    0.515412
H      1.474452   -0.517592    1.369170
H     -0.968159    1.825001    2.158537
H     -1.501418    2.605668    0.672189
H      0.006712   -1.260912   -1.850893
H     -0.631764    0.391319   -2.018818
H      0.925156    1.395026    1.037893
H     -2.866096    3.316986    2.840209
H      4.522583   -2.154605    0.211187
H      3.246541   -2.718117   -0.992050
H      4.530410   -1.538019   -1.451263
H     -1.364769    2.242163    0.371481
H     -0.348455    1.757707   -1.090401
H      1.119309   -1.711018   -0.237312
H     -4.399794   -1.127469   -0.552363
H     -3.078075   -1.836766   -1.564853
H     -1.967890    0.383237   -1.945649
H     -2.855997   -0.093254    0.958578
H     -0.707456    0.471516    1.607370
H     -3.729320   -3.351185    0.001454
H      5.578711    0.686967    0.767277
