140

C     -6.828750    3.346496   -3.286144
C     -6.077717    3.552343   -1.000137
C     -7.837686    1.954860   -1.595171
C      2.368759   -5.704366   -1.269161
C      2.661960   -4.634422   -2.084482
C      1.263478   -5.593552   -0.444652
C     -5.391938   -1.036734    3.992106
C     -5.129774    0.435828    4.272254
C     11.873503   -0.978593    0.601838
C     10.958618   -1.671817    1.392792
C      1.884066   -3.502998   -2.082462
C      0.479831   -4.441018   -0.446189
C     11.348086   -0.166331   -0.363102
C     -4.859488   -1.329176    2.593157
C     -3.837456    0.828389    3.586640
C      9.596381   -1.561107    1.232918
C      9.468771    0.817389   -1.475184
C      8.118421    0.959785   -1.590128
C     -0.094120   -2.216259   -1.266173
C     -5.056820   -0.523226    0.287290
C      3.543815    2.037521   -0.168450
C     -2.940579    1.071318    1.331700
C     -2.282457   -0.477774   -0.289865
C      0.783343   -3.368995   -1.278200
C      9.982333   -0.038668   -0.540040
C     -5.131810   -0.120948    1.756702
C     -4.224120    1.031469    2.101143
C      9.089108   -0.727283    0.248998
C      7.240088    0.264299   -0.780074
C      0.151400   -1.240094   -0.225176
C      3.456171    0.469907   -0.032703
C     -4.453079    0.666051   -0.401441
C     -0.856312   -0.063009   -0.305093
C      2.482806    2.710265    0.583479
C      5.817264    0.676587   -0.837664
C      2.246917   -0.003142   -0.602530
C     -4.733790    0.820372   -1.824381
C     -6.508681    2.525946   -2.011532
N      1.290598    2.662853    0.432559
N      7.728183   -0.578285    0.127181
N      1.400641   -0.673440    0.041348
N      4.777177   -0.024242   -0.126318
N     -5.553798    1.573664   -2.395323
N     -3.098655    0.708508   -0.030070
O     -0.523965    0.813819   -1.316550
O      2.950022    3.546249    1.647118
O      5.514748    1.699458   -1.508019
O      1.967253    0.284837   -1.958272
O     -3.980671    0.005907   -2.705002
C      1.242711   -0.749528    2.992284
C     -1.265441   -1.174125    2.959077
C     -3.132489   -0.626308   -0.602772
C      2.919219    2.286246   -1.915652
C      3.346498    0.977292   -2.023107
C     -0.203074    0.602159    1.586662
C     -1.463352    1.078987    0.964822
C     -0.794536   -1.285964   -0.922959
C     -0.609134    2.002927   -0.998300
C     -0.122114   -0.382825    2.450241
C     -1.727322   -0.159256   -1.045887
C      0.744197    1.524075   -1.343593
C      1.611277    2.566170   -1.574332
C      2.491354   -0.071545   -1.795775
C      1.170390    0.212388   -1.450674
C      1.469833   -1.996604   -1.524021
Cl     1.038416    4.230660   -1.434337
N      2.618586   -1.408788   -1.826139
N     -1.481467    1.058250   -0.455848
N      0.561761   -0.970546   -1.288325
S      1.078128   -3.739567   -1.421179
H     -7.163861    2.617483   -4.043954
H     -5.894929    3.848053   -3.552320
H     -7.640312    4.038775   -2.951523
H     -6.505754    4.577001   -1.263254
H     -6.500675    3.347699   -0.004659
H     -4.980633    3.718635   -0.969882
H     -8.236294    1.246965   -2.366757
H     -7.827597    1.501495   -0.611855
H     -8.559676    2.791316   -1.561699
H      2.967613   -6.586567   -1.263142
H      3.533533   -4.738370   -2.731391
H      1.044762   -6.450760    0.207472
H     -4.816078   -1.607437    4.740592
H     -6.474027   -1.247657    4.044433
H     -5.930364    1.073416    3.812088
H     -5.136569    0.636167    5.371140
H     12.949804   -1.101973    0.787500
H     11.348105   -2.312774    2.161507
H      2.192619   -2.701407   -2.780816
H     -0.364417   -4.405158    0.207961
H     12.023218    0.395260   -0.999727
H     -3.755949   -1.441831    2.615556
H     -5.295852   -2.250146    2.184947
H     -3.030016    0.125742    3.706889
H     -3.494643    1.790381    4.024561
H      8.863825   -2.113851    1.862957
H     10.163828    1.351480   -2.089526
H      7.748287    1.661256   -2.356871
H     -1.195655   -2.622352   -1.116225
H     -0.204996   -1.800550   -2.307518
H     -6.077306   -0.638330   -0.126165
H     -4.495983   -1.447192    0.134019
H      3.417596    2.233610   -1.268352
H      4.520684    2.378845    0.208669
H     -2.498876    2.075177    1.412908
H     -2.231751    0.383129    1.880153
H     -2.384495   -1.188122    0.589091
H     -2.592086   -1.062876   -1.165064
H     -6.192639    0.261250    1.915666
H     -4.771948    2.021264    2.131509
H     -0.173571   -1.743836    0.766451
H      3.298198    0.478894    1.170687
H     -4.934906    1.578771    0.085265
H     -0.651876    0.484652    0.668311
H      0.378333    2.617102    0.305263
H      5.142424   -0.943281    0.302784
H     -0.933608    0.555091   -2.165334
H      2.290555    3.794141    2.403627
H      1.593315   -0.364510   -2.612826
H     -3.571436    0.397288   -3.578493
H      1.923163    0.105197    2.988549
H      1.656364   -1.605379    2.415276
H      1.098810   -1.055453    4.049574
H     -1.527669   -2.044148    2.336505
H     -1.007947   -1.520295    4.009377
H     -2.190148   -0.571557    3.095191
H     -3.561597   -1.308176   -1.366763
H     -3.103758   -1.150881    0.365341
H     -3.808801    0.235836   -0.547596
H      3.584775    3.119696   -2.090497
H      4.387787    0.750629   -2.293429
H      0.712233    1.124165    1.283292
H     -1.588410    2.165926    1.283861
H     -2.334339    0.573898    1.434430
H     -0.842842   -1.777740    0.085140
H     -1.129036   -2.080748   -1.687213
H     -1.024967    2.495665   -1.929032
H     -0.550285    2.878480   -0.275488
H     -1.897770    0.030221   -2.167356
H      1.710994   -4.339435   -0.319347
