51

C      4.660652    1.638946    0.124467
C      3.912598   -0.755084    0.803883
C     -0.022171   -0.222663    1.859030
C     -4.001013   -2.316547   -0.844156
C     -4.656300   -1.179000   -0.429699
C      2.662630    0.552158   -0.821293
C      1.742578   -0.595639   -0.920223
C     -0.759376    1.657227    0.379051
C     -0.443152   -1.395068   -0.670916
C      3.697999    0.482083   -0.001935
C      0.249798    0.547785    0.589985
C     -1.884188   -1.195884   -0.546717
C     -2.627150   -2.326577   -0.902721
C     -3.942847   -0.046117   -0.071810
C     -2.558595   -0.074457   -0.137066
C     -3.189208    1.926139    0.570350
Cl    -1.713616   -3.727366   -1.417373
N     -4.274479    1.180514    0.359772
N      0.397253   -0.285354   -0.564857
N     -2.126035    1.128943    0.255762
S     -3.052806    3.610199    1.139097
C      0.993475    0.309433   -0.125951
O      1.209511    1.550845   -0.047905
O      2.036541   -0.588298    0.058471
O     -1.734294    0.957692   -0.502412
O     -1.134226   -1.359198    0.789453
O     -0.644196   -1.062348   -1.796287
P     -0.641080   -0.338588   -0.472327
H      5.038903    1.594004    1.170854
H      4.072850    2.555330    0.023250
H      5.469377    1.571706   -0.619405
H      4.726081   -0.620560    1.545077
H      4.096198   -1.645774    0.192099
H      2.978372   -0.939877    1.398780
H     -1.092383   -0.300926    2.097107
H      0.446604    0.313379    2.724053
H      0.489443   -1.197323    1.787668
H     -4.536305   -3.224603   -1.132506
H     -5.732199   -1.202068   -0.394360
H      2.468053    1.429354   -1.424524
H      2.144773   -1.488860   -0.379200
H      1.749807   -0.910851   -2.005158
H     -0.687930    2.323236    1.273016
H     -0.467365    2.198634   -0.536463
H     -0.265194   -1.866557   -1.681252
H     -0.126954   -2.204842    0.050938
H      1.225839    1.061015    0.736429
H     -4.070542    3.951346    2.040789
H      2.929895   -0.197832    0.337676
H     -1.438494    1.565708    0.246750
H     -1.577132   -0.837414    1.512533
