41

C     -1.619046   -3.047098   -0.293910
C      4.918058   -0.108689   -0.533351
C      4.785276    1.061349    0.393260
C      2.877926   -0.664920    0.872033
C      1.521662   -0.247865    1.354034
C     -1.465431    2.799255   -0.533384
C     -3.770257    2.397421   -0.713103
C     -0.025797   -1.144045   -0.297661
C      0.228382    1.229870   -0.083746
C     -1.326375   -1.663682    0.227774
C      3.533196    0.329835   -0.055368
C     -1.231983    1.466432   -0.286556
C     -2.735095    3.303984   -0.752951
C     -3.598446    1.061242   -0.472288
C     -2.308949    0.583717   -0.255213
C     -3.702506   -1.051844   -0.122095
Cl    -3.013832    5.014917   -1.066344
N     -4.448042    0.018729   -0.382816
N      0.523304   -0.055978    0.400814
N     -2.376804   -0.731106   -0.038809
S     -4.355428   -2.677795    0.095931
H     -2.119327   -3.040293   -1.270438
H     -2.068161   -3.642499    0.495804
H     -0.608438   -3.505158   -0.502433
H      5.366683   -1.021020   -0.127551
H      5.247680    0.141188   -1.546437
H      5.037730    0.868446    1.457346
H      4.943074    2.076736   -0.024222
H      2.827175   -1.648931    0.315876
H      3.555706   -0.847270    1.719634
H      1.609774    0.631087    2.055385
H      1.186026   -1.082677    2.043832
H     -0.608314    3.471767   -0.553612
H     -4.790018    2.771608   -0.889067
H      0.693103   -2.018935   -0.244009
H     -0.110012   -0.889057   -1.380288
H      0.593528    2.004549    0.601329
H      0.679183    1.411487   -1.096624
H     -1.249107   -1.751971    1.350067
H      2.935681    0.743200   -0.884955
H     -5.531781   -2.545987    0.887130
