42

C     -3.699487    1.418437   -0.635981
C     -4.790974    0.546763   -0.016741
C      2.751992   -2.910904   -0.220800
C      1.569360   -2.207010   -0.043914
C      3.950215   -2.240454   -0.301145
C     -2.467034    0.564293   -0.923255
C     -4.322590   -0.876821   -0.091050
C      0.539155    1.256949    0.331741
C      1.598994   -0.843321    0.049894
C      0.430869   -0.092812    0.237164
C      4.011603   -0.867630   -0.209270
C     -2.080391   -0.082098    0.389830
C      1.757519    1.852943    0.244030
C      2.822441   -0.185075   -0.033698
C     -0.817189   -0.879649    0.318399
C      5.327128   -0.164700   -0.300286
C      1.860087    3.331446    0.353992
F      6.351240   -1.083143   -0.466830
F      5.565368    0.623317    0.808866
F      5.277567    0.670058   -1.397787
F      2.657268    3.574432    1.476575
F      0.657975    3.957645    0.413539
F      2.609644    3.743157   -0.755823
N     -3.141270   -1.060264    0.676050
N      2.890995    1.169904    0.064576
O     -0.725836   -1.541142    1.571990
H     -3.403734    2.225816    0.053797
H     -4.110331    1.881046   -1.548845
H     -4.983346    0.785687    1.028965
H     -5.750645    0.671623   -0.562506
H      2.676059   -3.977568   -0.288581
H      0.619128   -2.708424    0.029179
H      4.894147   -2.781792   -0.440131
H     -2.666854   -0.192384   -1.715376
H     -1.707077    1.227606   -1.338101
H     -5.105956   -1.532168    0.400237
H     -4.269448   -1.283942   -1.128109
H     -0.386544    1.808853    0.492090
H     -2.121992    0.673667    1.173383
H     -0.911090   -1.613657   -0.474876
H     -2.819695   -2.038477    0.553572
H     -0.537269   -0.820204    2.225235
