47

C     -4.380392    1.259091   -0.403809
C     -4.850220   -0.704166    1.805230
C      1.450599    0.742791   -2.015741
C     -3.668628    0.076987   -0.992165
C     -4.061727   -1.577922    0.904306
C      4.250878   -2.366912    0.479387
C      5.095680   -1.362699    0.050346
C     -1.830873   -1.152805    0.108183
C     -0.750370   -0.583602   -0.725484
C      1.738979    2.104805   -0.017648
C      0.996595   -0.700541    0.832751
C      0.789447    1.173204   -0.737302
C     -3.115444   -0.871702    0.001043
C      2.436422   -0.850371    0.530793
C      2.919770   -2.125053    0.723296
C      4.631846   -0.083204   -0.147894
C      3.277816    0.152621    0.102600
C      4.178051    2.037703   -0.549125
Cl     1.814332   -3.362422    1.265298
N      5.137980    1.096612   -0.543040
N      0.238055    0.148895    0.035185
N      3.058431    1.468824   -0.160527
S      4.388337    3.746630   -1.001792
H     -5.491253    1.231105   -0.565865
H     -4.084333    2.218566   -0.935529
H     -4.091060    1.437521    0.646870
H     -4.238920   -0.060093    2.466308
H     -5.677212   -0.215079    1.291929
H     -5.359744   -1.412758    2.539520
H      2.361874    1.320714   -2.270172
H      1.739823   -0.326176   -2.036355
H      0.762178    0.865756   -2.904412
H     -4.392601   -0.485580   -1.679438
H     -2.925368    0.479545   -1.706611
H     -3.571655   -2.422298    1.439454
H     -4.796808   -2.081340    0.209559
H      4.613421   -3.395058    0.641526
H      6.151432   -1.592388   -0.133507
H     -1.503634   -1.875204    0.881450
H     -1.068008   -0.059629   -1.626459
H     -0.166180   -1.479361   -1.130809
H      1.487643    2.280052    1.033320
H      1.795973    3.033100   -0.625487
H      0.552403   -1.730815    0.815011
H      0.966138   -0.302476    1.894365
H     -0.066219    1.844162   -1.056394
H      3.256544    4.460972   -0.640919
