42

C      3.431279    1.200446   -1.189826
C      4.530743    0.263791   -0.732093
C     -2.499531   -0.210379    3.350949
C     -1.375963   -0.356146    2.571425
C     -3.730406   -0.027405    2.770147
C      2.213143    1.121165   -0.308734
C      4.131442   -1.171872   -0.679980
C     -0.539926   -0.414125   -1.005014
C     -1.488498   -0.316848    1.174801
C     -0.363637   -0.454065    0.346111
C     -3.833531    0.007397    1.370879
C      2.168210   -0.290399    0.259641
C     -1.788872   -0.237325   -1.614583
C     -2.712526   -0.137604    0.573558
C      0.935532   -0.541410    1.036990
C     -5.126023    0.249367    0.702497
C     -1.904623   -0.195250   -3.105593
F     -5.037046    1.441083   -0.022364
F     -5.466919   -0.748217   -0.174216
F     -6.083375    0.428599    1.712447
F     -1.566706    1.023687   -3.613391
F     -3.198335   -0.454488   -3.515596
F     -1.141064   -1.213391   -3.688229
N      2.632970   -1.203539   -0.710659
N     -2.824195   -0.104502   -0.774319
O      0.903470    0.627177    1.910937
H      3.210214    0.985785   -2.271945
H      3.862143    2.230167   -1.200802
H      4.892929    0.643392    0.248287
H      5.359040    0.394347   -1.454200
H     -2.462057   -0.232697    4.439619
H     -0.438840   -0.514755    3.063866
H     -4.648187    0.075766    3.340752
H      2.361124    1.841649    0.539390
H      1.352285    1.395269   -0.896173
H      4.545290   -1.775264   -1.484284
H      4.379042   -1.568777    0.330493
H      0.307492   -0.527727   -1.670165
H      3.007642   -0.233977    1.048475
H      1.007730   -1.423012    1.667334
H      2.493292   -0.905298   -1.727789
H      0.505248    1.329387    1.373804
