47

C      4.334745   -0.692218    1.780467
C      5.350590   -0.179552   -1.022310
C     -0.994788   -1.126771    1.243056
C      3.084819   -0.897584    0.986741
C      3.939232   -0.514050   -1.384872
C     -4.737466    2.320343    1.308353
C     -5.406654    1.378848    0.566147
C      2.029982    0.714195   -0.553037
C      0.984062    1.138332    0.365769
C     -1.546866   -1.059186   -1.130951
C     -1.222470    1.519826    0.855688
C     -0.606073   -0.585854   -0.084433
C      2.987740   -0.200640   -0.290451
C     -2.662925    1.347460    0.655467
C     -3.379749    2.318928    1.363234
C     -4.716755    0.416121   -0.136156
C     -3.330640    0.400624   -0.090492
C     -3.995702   -1.218680   -1.350275
Cl    -2.466208    3.482745    2.285376
N     -5.097168   -0.605986   -0.929251
N     -0.386630    0.849036   -0.121474
N     -2.888886   -0.617992   -0.847858
S     -3.924522   -2.638698   -2.433767
H      4.475008    0.415752    1.919979
H      4.145689   -1.057854    2.829544
H      5.209007   -1.210205    1.406014
H      5.479234    0.510561   -0.194293
H      5.868936    0.314447   -1.913580
H      5.904730   -1.112192   -0.837515
H     -1.672081   -0.529998    1.848725
H     -0.089241   -1.434018    1.833788
H     -1.535847   -2.103839    1.066493
H      3.070367   -2.019067    0.749375
H      2.202647   -0.790334    1.656048
H      3.836240   -1.585716   -1.700532
H      3.663050    0.124855   -2.266526
H     -5.307725    3.064467    1.852084
H     -6.488567    1.355487    0.504852
H      2.011255    1.201759   -1.551722
H      1.018806    0.777492    1.388141
H      0.975296    2.270326    0.458580
H     -1.237654   -0.710039   -2.145262
H     -1.590813   -2.180580   -1.108160
H     -1.015913    2.617573    0.686608
H     -0.873163    1.344615    1.891644
H      0.402300   -1.027638   -0.331133
H     -3.799229   -3.785098   -1.602579
