41

C     -3.559912    1.386878    0.709804
C     -4.063542    0.769931   -1.712205
C     -0.475494   -2.903094    0.249861
C     -2.413402   -0.465254   -0.321084
C     -1.691053   -0.682016    0.938419
C      1.372422    2.530078   -0.255772
C      1.676738   -1.914138   -0.024115
C     -0.009067    0.792695    0.413404
C     -3.319981    0.523043   -0.463345
C      0.205909   -1.575154   -0.139223
C      1.299205    1.137211   -0.118783
C      2.508271    3.122096   -0.743375
C      3.616259    2.361781   -1.114742
C      3.553816    0.979177   -0.982701
C      2.394984    0.430059   -0.489457
C      3.805755   -1.178673   -0.911879
Cl     2.633019    4.857835   -0.926892
Cl     5.081154    3.061614   -1.738846
N      4.434500   -0.018189   -1.247042
N     -0.256913   -0.566728    0.738454
N      2.567872   -0.895955   -0.452822
S      4.595570   -2.773618   -1.094323
H     -4.400598    2.088815    0.503363
H     -2.706372    2.011388    1.001892
H     -3.914771    0.725727    1.536020
H     -3.855584   -0.012384   -2.478879
H     -3.858928    1.784458   -2.112156
H     -5.143671    0.682298   -1.480151
H     -0.248569   -3.034143    1.328019
H      0.071678   -3.710796   -0.278020
H     -1.526052   -2.946609    0.001660
H     -2.275383   -1.068161   -1.218560
H     -1.969380   -1.603954    1.473860
H     -1.958253    0.166967    1.630289
H      0.541261    3.151595    0.018679
H      1.842235   -2.816134   -0.650046
H      1.909051   -2.211504    1.019009
H     -0.832180    1.202045   -0.249350
H     -0.124157    1.374928    1.378086
H      0.015162   -1.341095   -1.211984
H      4.478400   -3.423019    0.165179
