27

C      3.797490    0.305569   -1.586659
C      1.416457    0.088361    0.932757
C     -2.781018   -1.528503    2.246197
C     -1.259080    0.949273   -1.100731
C      0.643160   -0.466572   -0.244542
C      2.698393   -0.395940   -0.830777
C     -2.842416    0.283857    0.245615
C     -1.666460   -0.377681    0.536318
C     -3.998972    0.032458    0.967054
N     -1.667825   -1.283394    1.548303
N     -3.906440   -0.879884    1.950664
N     -2.556295    1.115687   -0.792313
N     -0.699602    0.041381   -0.300039
O      5.007746   -0.093795   -1.021630
O      2.724956   -0.057435    0.511109
O      1.431196   -0.062015   -1.311097
S     -5.502123    0.901616    0.569123
H      3.751549   -0.024843   -2.649125
H      3.712598    1.388259   -1.475212
H      1.113967    1.135748    1.070394
H      1.181969   -0.480234    1.853622
H     -2.762505   -2.263880    3.060400
H     -0.679803    1.454877   -1.886056
H      0.678569   -1.569874   -0.194712
H      2.809023   -1.495604   -0.904849
H      5.509716    0.659871   -0.642295
H     -6.154252    0.310155   -0.551520
