27

C      3.487213    1.367843   -1.067471
C      1.751100   -1.410492    0.331509
C     -2.958454    2.049848    0.009739
C     -1.071512   -1.966318   -0.335652
C      0.722531   -0.340603    0.367867
C      2.606612    0.505317   -0.202205
C     -2.763630   -0.604731   -0.450516
C     -1.637638    0.091719   -0.070342
C     -3.986164    0.012389   -0.602977
N     -1.779503    1.412818    0.148814
N     -4.036863    1.342383   -0.362039
N     -2.392878   -1.881439   -0.610790
N     -0.592726   -0.752843   -0.000125
O      4.812607    1.100333   -0.692279
O      2.849114   -0.840693   -0.348376
O      1.261621    0.614062   -0.525449
S     -5.465617   -0.847280   -1.091983
H      3.350211    1.120269   -2.137256
H      3.291169    2.416855   -0.855920
H      1.459158   -2.343636   -0.147690
H      2.144004   -1.649125    1.359777
H     -3.011047    3.118124    0.200648
H     -0.498403   -2.866978   -0.380038
H      0.764845    0.162440    1.372867
H      2.714177    0.812830    0.856078
H      4.830065    1.164062    0.311998
H     -5.849991   -1.787156   -0.099463
