55

C      1.641907   -2.680984   -2.608613
C      2.801643    0.274559    3.263242
C      5.878132    2.672133   -1.788976
C      1.776880   -1.782294   -1.375949
C     -6.032077   -0.372267    2.649249
C     -5.312150    0.085634    3.734167
C     -5.415125   -0.496448    1.435972
C     -3.978950    0.422717    3.623939
C     -3.370217   -0.567626   -1.173205
C     -2.155842   -1.332160   -1.565024
C      0.465123    0.313881    0.394314
C     -0.032351   -0.468739   -2.318194
C      3.213517    0.774374    0.934802
C      1.395393   -0.392624   -1.819340
C     -4.094600   -0.161324    1.331942
C     -3.241388   -0.187729    0.256957
C      1.443999    0.614756   -0.707542
C      2.783956    0.998079   -0.295782
C     -3.339624    0.303388    2.405467
C     -0.919499    0.313594   -0.290501
C     -2.007916    0.252234    0.686408
C      3.701449    1.659207   -1.254840
N     -2.063532    0.550468    1.986518
N     -0.906984   -0.779191   -1.203817
O      3.283157    1.868032   -2.416649
O      2.436166    0.174569    1.889047
O      4.966680    2.043928   -0.925819
H      1.994750   -2.171263   -3.525334
H      0.600038   -3.025828   -2.741758
H      2.264069   -3.600411   -2.487184
H      3.810093   -0.187254    3.344548
H      2.066601   -0.202345    3.921901
H      2.868433    1.371289    3.504056
H      6.783595    2.924785   -1.182832
H      6.156965    2.018474   -2.653083
H      5.509271    3.619641   -2.213100
H      2.824370   -1.863990   -1.049370
H      1.055845   -2.205992   -0.632303
H     -7.078566   -0.643259    2.709247
H     -5.852309    0.167206    4.683801
H     -5.933491   -0.853564    0.541045
H     -3.437991    0.781100    4.498572
H     -4.250982   -1.239936   -1.289956
H     -3.502782    0.323134   -1.835466
H     -2.183171   -1.500074   -2.668114
H     -2.238572   -2.356580   -1.112260
H      0.552649   -0.681379    0.832413
H      0.492379    1.126554    1.154366
H     -0.173112   -1.177476   -3.135008
H     -0.298310    0.576008   -2.652345
H      4.242462    1.088687    1.190441
H      2.076630   -0.101491   -2.614871
H      0.998260    1.550816   -1.192383
H     -0.928260    1.255603   -0.887406
H     -1.336612    0.907379    2.644613
