50

C      4.253325    1.738549    0.523879
C     -3.878578   -1.647644    0.686753
C      2.435316   -2.397314   -0.655683
C     -0.639241    3.813716   -0.545143
C      4.361626    0.266414    0.272895
C     -1.599396   -2.359195    1.144136
C     -0.152114   -2.225004    0.831809
C     -2.916483    0.839428   -0.355239
C     -2.284040    2.052220   -0.926196
C     -2.437246   -1.164848    0.912968
C      1.516291   -1.225428   -0.755280
C     -2.071058   -0.384128   -0.336605
C      0.083778   -1.517133   -0.457811
C      2.080339   -0.058620    0.006597
C     -0.053053    0.556938    0.752227
C     -0.877474    2.305256   -0.502169
C     -0.609845   -0.144786   -0.454532
O      3.249579   -0.454415    0.663383
O      1.267859    0.492504    0.935886
O     -0.557854    1.865010    0.756171
O     -0.033824    1.757239   -1.469144
O     -0.329638    0.493185   -1.636925
H      3.893109    1.950460    1.555288
H      3.714509    2.284453   -0.255174
H      5.308280    2.143345    0.506493
H     -4.020707   -2.600183    1.229857
H     -3.950028   -1.912438   -0.405129
H     -4.611148   -0.881728    0.947750
H      2.596938   -2.899315   -1.655404
H      3.479091   -2.092444   -0.348014
H      2.139832   -3.183267    0.032466
H     -1.549242    4.364484   -0.268004
H     -0.351161    4.098346   -1.575527
H      0.146118    4.054127    0.191344
H      5.247216   -0.100539    0.830780
H      4.481950    0.118864   -0.827812
H     -2.036136   -3.212925    0.547579
H     -1.724734   -2.672225    2.210626
H      0.451380   -1.826863    1.673397
H      0.218196   -3.284205    0.692667
H     -3.288595    1.106703    0.676842
H     -3.850935    0.632033   -0.934984
H     -2.347371    2.073582   -2.044126
H     -2.895550    2.940442   -0.597871
H     -2.514074   -0.474755    1.795489
H      1.527111   -0.920159   -1.846809
H     -2.369877   -1.046772   -1.201605
H     -0.357321   -2.104472   -1.280770
H      2.409518    0.775782   -0.683374
H     -0.554640    0.067726    1.642048
