41

C      4.541535    1.875466    0.916371
C      4.347976   -0.610753    0.291552
C     -0.894383    1.149874   -1.755797
C     -3.463548   -2.944948   -0.745018
C     -4.275999   -1.997936   -0.185437
C      2.364246    0.745714    0.805548
C      1.559337   -0.459625    0.561635
C     -0.815949    1.267080    0.738910
C     -0.110028   -1.523445   -0.641149
C      3.681296    0.667362    0.676293
C     -0.050892    0.906201   -0.533082
C     -1.553368   -1.502856   -0.398650
C     -2.116909   -2.680832   -0.841760
C     -3.750947   -0.807989    0.269307
C     -2.392334   -0.568430    0.159538
C     -3.279997    1.169126    1.089327
F     -1.320319   -3.632635   -1.400990
N     -4.273966    0.293681    0.852412
N      0.600041   -0.336016   -0.494481
N     -2.112537    0.627086    0.656236
S     -3.415458    2.787954    1.844396
H      4.247373    2.385669    1.864007
H      5.597906    1.563847    1.037771
H      4.515031    2.557991    0.047501
H      4.246774   -1.371669    1.108862
H      3.892329   -1.010529   -0.661188
H      5.406595   -0.435440    0.055501
H     -0.244540    1.487234   -2.590631
H     -1.540185    2.043981   -1.513837
H     -1.558639    0.339109   -2.031772
H     -3.869090   -3.884921   -1.105674
H     -5.343746   -2.191019   -0.101327
H      1.930590    1.683444    1.083517
H      2.205381   -1.367005    0.428078
H      0.986607   -0.676967    1.503743
H     -1.009343    2.359583    0.776370
H     -0.292916    0.901039    1.621759
H      0.020809   -1.929531   -1.690080
H      0.320344   -2.320519    0.001522
H      0.757885    1.702010   -0.583669
H     -3.536963    3.739616    0.812951
