41

C      4.819766    1.382607    0.186059
C      3.876824   -1.002720   -0.060339
C     -1.189913   -0.021431   -2.232904
C     -1.813471   -2.568798    2.410755
C     -0.717338   -1.772479    2.065219
C     -3.085541   -2.277828    1.956427
C      2.616019    0.948215   -0.724546
C      1.504433    0.070459   -1.136087
C     -1.855911    1.606810   -0.552771
C      0.237481    0.126238    0.927822
C      3.727092    0.450450   -0.214897
C     -0.649545    0.985076   -1.202791
C     -0.973117   -0.708003    1.265804
C     -3.329231   -1.196257    1.146952
C     -2.242671   -0.413595    0.809134
C     -4.037409    0.434232   -0.139719
N     -4.431977   -0.655484    0.550272
N      0.297452    0.380795   -0.426115
N     -2.712546    0.573026    0.021831
S     -5.110248    1.492616   -1.095931
H      5.650746    0.783353    0.592614
H      4.466855    2.024788    1.027258
H      5.071271    1.986520   -0.688240
H      4.928657   -1.220107    0.233562
H      3.214194   -1.420109    0.720620
H      3.711597   -1.507653   -1.040829
H     -1.400614    0.440517   -3.194589
H     -0.385281   -0.767804   -2.374115
H     -2.049205   -0.583399   -1.803027
H     -1.652922   -3.419170    3.040566
H      0.272976   -1.962869    2.393216
H     -3.940746   -2.905886    2.231673
H      2.477090    2.015820   -0.861916
H      1.344827    0.285298   -2.234658
H      1.747484   -1.014361   -1.104061
H     -1.585696    2.347483    0.204261
H     -2.439438    2.115319   -1.334586
H      1.095720   -0.485767    1.250762
H      0.200413    1.008520    1.601479
H     -0.189887    1.795877   -1.836025
H     -5.468192    2.649702   -0.378139
