43

C      4.946090    0.208977   -0.491170
C     -4.429066   -2.396049   -0.542228
C     -3.793725   -1.784733   -1.608534
C     -4.419875   -1.750439    0.673489
C     -3.167226   -0.568922   -1.474808
C     -3.801542   -0.544931    0.816191
C      1.993456    0.983087    1.181539
C      1.598908   -0.838059   -0.513247
C     -3.226854    2.407421   -0.881567
C     -3.168100    0.065757   -0.244608
C      1.230735    0.498174    0.007262
C     -2.507336    1.378856   -0.044096
C      3.358504    0.369704    1.337769
C      3.017996   -1.253909   -0.231288
C      3.190390   -0.920751    2.155186
C      2.975221   -2.003258    1.112460
C     -1.055877    1.337509   -0.344919
N      3.787904   -0.139646    0.113634
O     -2.561341    3.631524   -0.655272
O     -0.637648    2.098453   -1.256185
O     -0.158374    0.534877    0.298172
O      4.097602   -1.935752    1.925427
H      5.770621    0.411253    0.251920
H      5.353933   -0.598090   -1.150786
H      4.901275    1.119721   -1.126508
H     -4.911429   -3.349182   -0.678151
H     -3.793786   -2.289547   -2.584336
H     -4.918020   -2.223660    1.521335
H     -2.664448   -0.075597   -2.300145
H     -3.828184   -0.078842    1.811641
H      2.154907    2.099058    1.120544
H      1.432270    0.823065    2.118096
H      1.484877   -0.865440   -1.637104
H      0.903415   -1.623407   -0.138290
H     -4.255928    2.561624   -0.498026
H     -3.191184    2.110162   -1.937814
H      1.380802    1.246020   -0.826274
H     -2.642551    1.678155    1.012982
H      4.100028    1.035691    1.796264
H      3.441816   -1.928982   -0.994500
H      2.587251   -0.901182    3.059745
H      2.206119   -2.760411    1.265792
H     -2.781628    4.231696   -1.398130
