49

C     -0.218586    2.650367    1.245090
C      0.189760   -3.054331   -0.149960
C      1.269433   -2.205589    0.460835
C     -1.175040   -2.673179    0.372400
C     -3.279819    1.118422   -0.345067
C     -2.233466    1.391519    0.680684
C      0.866994   -0.761685    0.367237
C     -2.162688   -2.425498   -0.730560
C     -2.983688   -0.103413   -1.166637
C      3.195556   -0.229020    0.833127
C      4.339750    1.615801   -0.130973
C     -1.065775    2.187327    0.107448
C      2.053859    0.128426    0.146718
C     -3.203886   -1.368855   -0.367665
C      4.355422    0.512763    0.701978
C      3.172896    1.954600   -0.812577
C      1.995489    1.205451   -0.681873
C      0.830377    1.646536   -1.440659
O     -4.475904   -1.833644   -0.649442
O      5.493146    0.126724    1.408470
O      3.255411    3.075861   -1.624295
O      1.098557    2.125861   -2.607747
O     -0.414860    1.538601   -0.914184
H      0.378802    1.883669    1.734437
H      0.401710    3.511372    0.874222
H     -0.904430    3.105238    2.006276
H      0.452031   -4.119243    0.081358
H      0.206401   -2.996638   -1.273186
H      2.268084   -2.405214    0.025833
H      1.352718   -2.468897    1.534415
H     -1.126958   -1.869749    1.128116
H     -1.559778   -3.573139    0.935714
H     -3.342903    2.010705   -1.009954
H     -4.262652    1.016111    0.146104
H     -2.625985    1.870053    1.599943
H     -1.812480    0.420677    1.011845
H      0.126931   -0.666871   -0.427300
H      0.376442   -0.478334    1.320390
H     -2.702991   -3.364579   -1.013707
H     -1.642975   -2.079107   -1.635687
H     -3.681852   -0.117286   -2.043104
H     -1.931142   -0.126535   -1.526326
H      3.186850   -1.091930    1.477002
H      5.249080    2.181657   -0.222235
H     -1.558655    3.112880   -0.316669
H     -3.063949   -1.152898    0.718310
H     -4.888217   -2.321460    0.104990
H      6.110613   -0.529497    0.915228
H      4.092365    3.625969   -1.730220
