85

C      4.370770   -1.685643   -2.712081
C      5.253814   -2.966208   -0.695405
C     -6.137425   -0.308240   -0.829142
C      2.954175    5.646787   -1.573745
C     -3.336008   -1.665786    1.694977
C     -1.299128    1.088873   -1.278592
C     -0.100000    0.861353    2.350071
C      4.987006   -0.487820    0.875402
C      4.633695   -0.594885   -0.577363
C      3.763066   -0.076524    1.697119
C     -3.796676    0.775629    0.023699
C     -4.004249   -3.072001   -1.182418
C     -2.778028   -2.846144   -0.323172
C     -2.567380    1.293596    0.706344
C      1.073814   -1.054832    0.492011
C      0.212517    2.570390    0.680687
C      4.755232   -1.707925   -1.276072
C     -5.148166   -1.219576   -0.091394
C      2.302167    4.318652   -1.424338
C      3.332645    1.255797    1.147662
C     -3.766531   -0.635046   -0.424822
C      1.106779    0.344971    0.278798
C     -5.283916   -2.624322   -0.570813
C     -0.224982   -1.592215   -0.216152
C      1.563682    2.498836   -0.089696
C      2.182699    1.305311    0.564656
C     -1.384282   -0.842575    0.360914
C      4.238757    2.368621    1.385239
C     -2.713618   -1.472066    0.289915
C     -1.309992    0.640780    0.136755
C     -0.089948    1.126979    0.868802
O      1.873013    3.747414   -2.445256
O     -6.244265   -2.657029   -1.610406
O     -0.053257   -1.593901   -1.555507
O      4.021654    3.521665    1.065325
O      5.477068    2.151482    2.033562
O      2.156154    3.694099   -0.182130
H      3.521492   -0.970509   -2.892721
H      3.969084   -2.687793   -3.009588
H      5.261602   -1.398007   -3.294991
H      5.512179   -3.689054   -1.501220
H      4.495496   -3.447365   -0.017978
H      6.185546   -2.840647   -0.105047
H     -5.721379    0.025567   -1.793724
H     -6.439661    0.536305   -0.164709
H     -7.055122   -0.919280   -0.983360
H      2.844457    6.277900   -0.667642
H      2.387788    6.183677   -2.385328
H      3.994437    5.576274   -1.923351
H     -3.778793   -0.759925    2.089652
H     -4.065989   -2.478853    1.714338
H     -2.471491   -1.986202    2.350142
H     -2.337864    1.074846   -1.745680
H     -1.058068    2.181302   -1.389276
H     -0.691525    0.564772   -1.996671
H      0.640625    0.101014    2.679116
H      0.222959    1.785648    2.918698
H     -1.053172    0.589698    2.789667
H      5.337025   -1.498736    1.170273
H      5.832486    0.177189    0.955129
H      4.262249    0.330844   -1.022118
H      3.100558   -0.876049    1.697683
H      4.211360    0.184812    2.696628
H     -4.120685    1.415959   -0.850542
H     -4.635473    0.966588    0.763400
H     -4.087922   -4.193418   -1.308674
H     -3.861371   -2.703659   -2.219542
H     -2.790213   -3.658971    0.443501
H     -1.920335   -3.083418   -0.977292
H     -2.478715    2.379044    0.389536
H     -2.624872    1.318165    1.785325
H      1.012988   -1.495165    1.505876
H      1.845294   -1.591639   -0.088085
H     -0.513060    3.204568    0.217385
H      0.514753    3.084203    1.642537
H     -5.409162   -1.153183    0.958529
H     -3.675961   -0.805799   -1.518001
H      0.939937    0.487524   -0.850498
H     -5.666537   -3.344132    0.177823
H     -0.289536   -2.637499    0.144814
H      1.262420    2.097539   -1.138374
H     -1.116326   -0.933323    1.478377
H     -5.932977   -2.002099   -2.309598
H      0.379586   -2.418741   -1.840473
H      6.041030    2.921529    2.322814
