41

C      3.829767    1.339887    0.457190
C      4.012175   -1.040195    1.346184
C     -0.014074   -1.234822   -2.804728
C      2.386307   -0.476165   -0.375817
C      1.669351    0.408074   -1.325764
C     -1.743909    2.379028    1.143081
C     -3.972089    1.550844    1.632706
C     -1.001142   -1.573807   -0.543296
C     -0.018054    1.157767    0.112622
C      3.352780   -0.075235    0.426917
C     -0.555633   -0.525009   -1.575445
C     -1.401082    1.168561    0.590432
C     -3.029515    2.555188    1.658979
C     -3.647073    0.340029    1.086078
C     -2.380667    0.186059    0.584782
C     -3.360899   -1.711051    0.251885
Cl    -3.499635    4.084588    2.371564
N     -4.238898   -0.859388    0.865954
N      0.267886    0.485378   -1.085771
N     -2.210398   -1.063550    0.077585
S     -3.649890   -3.399027   -0.250163
H      4.789294    1.425856    1.022596
H      4.021726    1.761523   -0.537717
H      3.059250    1.954068    0.985951
H      5.095380   -0.820737    1.490089
H      3.510912   -0.973637    2.332422
H      3.911365   -2.086446    0.990953
H     -0.025409   -0.557935   -3.679063
H      0.964611   -1.709877   -2.614507
H     -0.708943   -2.068468   -3.034327
H      2.093841   -1.516955   -0.343855
H      2.153116    1.428907   -1.250699
H      1.912295    0.075154   -2.365917
H     -1.032805    3.219411    1.192784
H     -4.974794    1.661968    2.025026
H     -0.232627   -1.620131    0.268789
H     -1.140172   -2.555396   -0.990860
H      0.630907    0.756605    0.935319
H      0.292461    2.241631   -0.026077
H     -1.520919   -0.055401   -1.935025
H     -3.594799   -4.257293    0.889144
