20

C      1.846618    0.788186   -0.087325
C      0.690489    0.690774    0.883282
C      1.377578   -0.105339   -1.228719
C     -1.321883   -0.805004    0.914258
C      0.139541   -0.688230    0.653492
C     -2.171171    0.053463    0.094864
N      0.531431   -1.101534   -0.664300
O     -3.415217   -0.008586    0.277821
O     -1.725844    0.940227   -0.876905
H      2.759340    0.357243    0.379448
H      1.992846    1.829430   -0.422898
H      1.100225    0.775502    1.918338
H     -0.033155    1.494900    0.732735
H      2.264692   -0.590795   -1.689614
H      0.884678    0.539497   -1.987041
H     -1.612034   -1.863594    0.794478
H     -1.496891   -0.544828    1.984382
H      0.656720   -1.368888    1.369634
H     -0.255482   -1.405847   -1.270322
H     -2.212480    1.013421   -1.775607
