29

C     -1.792810   -0.186004   -1.237036
C     -2.044683    0.590477    0.980956
C     -3.149125   -0.530911   -1.229031
C     -3.361467    0.255147    0.987102
C     -1.230253    0.377313   -0.131540
C     -3.929731   -0.310426   -0.119719
C      2.533354    0.928578   -0.777717
C      3.186189    0.314297    0.441248
C      1.150667    0.474394   -0.996921
C      3.366914   -1.171513    0.268343
N      0.141320    0.745363   -0.058324
N     -5.320290   -0.672210   -0.132937
O      3.343616    0.557516   -1.860624
O      2.511336    0.583050    1.625108
O      0.879816   -0.156490   -2.028429
O      2.928362   -1.969095    1.137244
O      4.007525   -1.701262   -0.827947
O     -6.125760   -0.473062    0.937105
O     -5.805597   -1.185177   -1.157214
H     -1.256619   -0.390602   -2.156435
H     -1.601203    1.042869    1.874187
H     -3.610529   -0.979815   -2.100570
H     -3.968677    0.440832    1.887224
H      2.634418    2.025952   -0.675644
H      4.185256    0.799399    0.531316
H      0.454764    1.293089    0.800447
H      4.278045    0.800883   -1.588648
H      3.045017    1.074639    2.275593
H      4.550146   -2.577231   -0.791341
