18

C     -0.955014   -0.889910   -0.578437
C      0.203361   -1.228192    0.332256
C     -1.559118    0.409589   -0.077557
C      0.524208    1.156121    0.711150
C      1.203909   -0.103534    0.232919
N     -0.583781    1.464960   -0.163246
O      1.563569    0.023688   -1.097054
H     -0.614254   -0.768019   -1.616093
H     -1.719100   -1.698454   -0.530786
H     -0.162010   -1.351786    1.363446
H      0.679155   -2.162581   -0.037908
H     -1.814897    0.290667    1.001207
H     -2.470719    0.649059   -0.665947
H      0.118247    0.942423    1.717612
H      1.269330    1.962351    0.769039
H      2.051552   -0.341967    0.902248
H     -0.283150    1.686936   -1.125392
H      2.548711   -0.041350   -1.137457
