30

C      5.460513   -0.238522    0.193201
C      3.408695    1.066922    0.652889
C      3.154720   -1.014295   -0.406595
C      2.057657    1.229601    0.608629
C      1.766162   -0.845896   -0.451417
C      3.997263   -0.073117    0.139947
C      1.183417    0.289289    0.059487
C     -2.622388    0.298100   -0.363828
C     -3.473586   -0.710092    0.372804
C     -1.218967   -0.192547   -0.507889
C     -4.856394   -0.142530    0.434254
N     -0.186256    0.584475    0.084971
O     -2.671458    1.484237    0.359312
O     -2.946915   -0.875074    1.639466
O     -0.975574   -1.232716   -1.119371
O     -5.391959    0.120048    1.538657
O     -5.542196    0.090916   -0.749325
H      5.815112   -0.443445   -0.851639
H      5.796232   -1.002536    0.914204
H      5.928743    0.724558    0.476055
H      4.055426    1.813502    1.084311
H      3.578512   -1.912786   -0.814556
H      1.677395    2.161699    1.037053
H      1.154673   -1.600815   -0.880351
H     -3.061132    0.515323   -1.367553
H     -3.521808   -1.682909   -0.138361
H     -0.485099    1.475433    0.599180
H     -2.613035    1.226050    1.323351
H     -3.084972   -1.796160    1.941466
H     -6.382781    0.683289   -0.716919
