24

C     -1.775004    2.033909    1.049185
C     -2.391068   -0.042548   -0.055980
C      2.534324   -1.348366    0.627932
C      2.675178   -0.675499   -0.641206
C      1.371055   -1.465386    1.184350
C      1.865600    0.512272   -2.569633
C      1.650036   -0.162452   -1.275311
C      0.149112   -0.939580    0.585483
C      0.294490   -0.247429   -0.723138
C     -1.215885    0.746701    0.464547
N      2.014901    1.045763   -3.583143
O     -0.450619    0.053002    1.375436
O     -0.278720    1.015593   -0.531193
H     -2.263675    1.772604    1.993999
H     -2.562394    2.383356    0.348162
H     -0.995236    2.813216    1.157494
H     -3.119529   -0.143492    0.766062
H     -2.882441    0.553874   -0.846426
H     -2.130652   -1.009102   -0.485112
H      3.454207   -1.754548    1.097842
H      3.672055   -0.572818   -1.122146
H      1.300739   -1.976161    2.136763
H     -0.553470   -1.821673    0.520651
H     -0.363004   -0.771238   -1.474618
