37

C     -2.175953    1.497617    1.059043
C     -3.705225    0.112558   -0.756287
C      4.186913   -1.385344   -1.387367
C      2.371527    2.909026    1.713722
C     -0.812879   -2.096629   -0.915604
C     -2.264066   -1.813154   -0.597406
C      1.448375   -1.155806   -0.730738
C      0.604138    0.971982    0.795513
C     -1.757641    0.108900    0.678136
C      0.102043   -1.041971   -0.407298
C     -0.296764    0.032946    0.358571
C      2.350211   -0.211706   -0.290723
C      1.925897    0.858210    0.476692
N     -2.421715   -0.407760   -0.481519
O      3.713128   -0.306380   -0.604923
O      2.814611    1.824811    0.933641
Cl     0.686408    0.000000    0.000000
H     -1.916533    2.221719    0.269704
H     -3.262276    1.462655    1.280432
H     -1.679460    1.734120    2.028652
H     -4.379836    0.240979    0.089221
H     -4.221888   -0.600739   -1.461506
H     -3.635500    1.066978   -1.317943
H      3.701496   -1.310035   -2.394178
H      3.837924   -2.337182   -0.933598
H      5.274796   -1.351089   -1.453694
H      1.803582    2.529275    2.608021
H      1.654364    3.538618    1.157388
H      3.232045    3.469134    2.108282
H     -0.482119   -3.067756   -0.456216
H     -0.716111   -2.172000   -2.028245
H     -2.950478   -2.271661   -1.335653
H     -2.450660   -2.263415    0.412514
H      1.781191   -2.005727   -1.339571
H      0.256890    1.795227    1.389852
H     -1.930026   -0.576400    1.533083
H     -0.686408    0.000000    0.000000
