67

C     -3.792550    0.183867    0.200431
C      3.796893    0.521547    0.267386
C     -3.317528   -0.834393   -0.804487
C     -3.057645    1.469585    0.005893
C      2.669045    1.350577   -0.212089
C      3.417782   -0.830544    0.788631
C     -1.885826   -1.196633   -0.509652
C     -1.559131    1.239775   -0.193254
C      1.608549    0.620386   -1.007437
C      2.282114   -1.473759    0.109147
C     -1.185730   -0.104476    0.313007
C      1.146210   -0.616860   -0.332104
N      0.118355   -0.432088    0.591691
C      3.877982    0.567165    0.527133
C     -1.691592   -1.648570    1.395971
C     -3.662891   -1.359251   -0.037450
C     -2.309743    0.582780    0.644052
C      2.578178   -0.096063    0.141993
C      1.450856    0.870855    0.010128
C      1.759224    1.892141   -1.048781
C     -0.188026   -0.584392   -1.018138
C     -2.237753   -0.873006    0.235190
N      0.150869    0.285183   -0.151524
O      2.857824    2.465262   -1.116215
O      0.781877    2.202261   -1.978131
O      0.693818   -1.106949   -1.967425
O     -1.528841   -0.978938   -0.941934
H     -4.886105    0.334332   -0.021912
H     -3.706505   -0.134940    1.251388
H      4.290187    1.065764    1.123500
H      4.582983    0.455406   -0.521492
H     -3.983508   -1.735874   -0.765795
H     -3.378671   -0.322488   -1.808493
H     -3.261803    2.148294    0.833486
H     -3.511644    1.932460   -0.928820
H      2.187171    1.970013    0.581240
H      3.109448    2.116121   -0.919836
H      4.325955   -1.491620    0.644056
H      3.269030   -0.823917    1.902178
H     -1.378605   -1.417712   -1.445749
H     -1.891412   -2.129801    0.086553
H     -1.420474    1.394538   -1.287608
H     -1.013599    2.021660    0.340541
H      0.780248    1.334922   -1.117343
H      2.082871    0.416591   -2.014592
H      1.845211   -2.226842    0.836099
H      2.620050   -2.125684   -0.746051
H     -1.753643   -0.194017    1.317672
H      0.705784   -1.253898   -1.222964
H      0.146495   -1.230290    1.295958
H      4.546436   -0.138340    1.096051
H      4.476564    0.875086   -0.358417
H      3.677071    1.476304    1.115168
H     -1.246601   -2.611198    1.138195
H     -1.023405   -1.006430    2.031071
H     -2.568264   -1.874878    2.064500
H     -4.362606   -0.893221    0.685379
H     -3.895392   -1.085502   -1.085942
H     -3.649358   -2.458411    0.020680
H     -3.310397    0.837625    1.055607
H     -1.539924    0.770085    1.448614
H     -2.041447    1.208781   -0.207575
H      2.785438   -0.662492   -0.783414
H      2.308174   -0.845871    0.919962
H      1.446598    1.456505    0.987233
H      0.661953    3.163132   -2.303622
H      1.203377   -0.429653   -2.518359
