24

C     -2.309949   -0.255152   -1.720518
C     -2.087257   -0.807750    0.663184
C      2.914514   -0.248083   -0.137447
C      2.577921    1.089549    0.284350
C      2.005364   -1.176557   -0.182895
C      1.083159    2.813022    1.057451
C      1.361286    1.430374    0.636488
C      0.610601   -0.925352    0.184563
C      0.271582    0.441384    0.613563
C     -1.346303   -0.368545   -0.558368
N      0.861199    3.892534    1.405261
O     -0.267325   -1.188535   -0.879533
O     -0.733701    0.866016   -0.295633
H     -1.876355   -0.718440   -2.650256
H     -3.221484   -0.850221   -1.496893
H     -2.583538    0.782933   -1.920024
H     -3.147054   -1.095080    0.413786
H     -2.208439    0.035092    1.404355
H     -1.657341   -1.675990    1.177249
H      3.969970   -0.457734   -0.420568
H      3.338506    1.890823    0.328840
H      2.290365   -2.192170   -0.509571
H      0.372278   -1.703739    0.974369
H     -0.217999    0.421621    1.628246
