16

C     -1.687687    0.274935    0.341810
C     -0.556188    0.802297   -0.549153
C     -1.139372   -1.093577    0.691023
C      0.603597    0.212716    0.245750
C      1.886783    0.343452   -0.469534
O      2.464693    1.413410   -0.692265
O      2.488283   -0.825500   -0.925771
O      0.188800   -1.111745    0.350546
H     -1.673807    0.923946    1.250435
H     -2.644273    0.250048   -0.172279
H     -0.537365    1.888544   -0.589008
H     -0.639679    0.286761   -1.514094
H     -1.678043   -1.889193    0.102754
H     -1.223997   -1.274837    1.776332
H      0.658545    0.713934    1.225084
H      3.489710   -0.915193   -1.071630
