59

C     -1.866121   -1.006583    1.392567
C      3.273341   -0.896146    0.603662
C     -1.660191    1.365693   -1.291907
C      1.988186   -1.124167    0.101495
C     -0.536005    0.376569   -1.627590
C      3.563990    0.318496    1.191108
C     -2.433501    0.529865   -0.264905
C      1.355985    1.047121    0.784822
C      1.021644   -0.148018    0.191409
C     -0.343632   -0.361183   -0.330264
N      2.613325    1.241462    1.264412
N     -1.351404    0.084353    0.586171
C     -1.280457   -0.512455    1.628825
C      3.100728    0.086969    0.992804
C     -2.457628    0.738285   -0.663029
C      1.707600    0.069033    0.847462
C     -0.983974    1.164306   -0.722140
C      3.910557   -0.116108   -0.097248
C     -2.427797   -0.765986   -0.366370
C      2.016524   -0.347586   -1.433767
C      1.120735   -0.149763   -0.375039
C     -0.307538   -0.183323   -0.585686
N      3.335145   -0.327561   -1.279817
N     -1.114417   -0.954636    0.296718
O     -0.973865   -0.871690    0.409554
O      1.508705   -0.084186   -0.371355
O     -0.572475    1.267922   -1.081170
O      0.073677    1.297950    1.250925
S     -0.028782    0.436195    0.007177
H     -1.196574   -1.252483    2.229070
H     -2.030688   -1.859735    0.707939
H     -2.847310   -0.689879    1.791570
H      4.023434   -1.668355    0.527883
H     -1.224356    2.215818   -0.745574
H     -2.260727    1.622733   -2.160433
H      1.786907   -2.077080   -0.350819
H     -0.945672   -0.300227   -2.398695
H      0.333524    0.952259   -1.952809
H      4.565173    0.474038    1.573336
H     -3.184936    1.120622    0.259348
H     -2.821593   -0.349942   -0.806353
H      0.640533    1.837707    0.879132
H     -0.463333   -1.452940   -0.522432
H     -2.354718   -0.733930    1.925414
H     -1.193923    0.581029    1.793645
H     -0.697163   -1.080405    2.384166
H      3.556369    0.258518    1.951840
H     -2.965704    1.288905    0.133267
H     -2.918974    0.901714   -1.643224
H      1.160204    0.238006    1.740133
H     -0.779694    1.842834    0.098385
H     -0.750888    1.610366   -1.688818
H      4.967189   -0.098503    0.035033
H     -3.253891   -0.961891    0.327078
H     -2.502510   -1.366444   -1.279710
H      1.618202   -0.523458   -2.414764
H     -0.503979   -0.657916   -1.605157
H     -1.686496   -1.061052   -0.243668
H      1.679235   -0.985139    0.028537
