19

C      2.289652    0.087203   -0.136311
C     -1.914702   -0.032989    0.114031
C     -1.069692   -1.256619    0.332656
C      0.079449    1.250255   -0.096784
C      0.864320    0.048729    0.330844
N     -1.245212    1.193597    0.456494
N      0.239456   -1.122480   -0.257341
H      2.348108    0.079799   -1.252504
H      2.867029    0.924564    0.268413
H      2.781836   -0.858565    0.186170
H     -2.226175   -0.001798   -0.950184
H     -2.835082   -0.153867    0.719403
H     -1.032984   -1.544901    1.409081
H     -1.574258   -2.099071   -0.198376
H      0.559282    2.175172    0.286839
H      0.074483    1.312829   -1.197327
H      0.856207    0.003926    1.431229
H     -1.839065    1.977846    0.073293
H      0.777347   -1.983628   -0.098865
