25

C     -2.973234   -0.641399    0.330118
C      2.090376   -1.613075   -0.168988
C     -2.653251    0.819115    0.508461
C     -1.367029    1.133023   -0.247259
C     -0.228719    0.293885    0.294938
C      1.011582    0.632977   -0.473344
C      2.227715   -0.134552   -0.034062
N      2.648291    0.195443    1.300557
H     -2.406343   -1.035741   -0.514248
H     -4.064807   -0.730114    0.089076
H     -2.727773   -1.218395    1.258244
H      1.612943   -1.926439   -1.121081
H      3.137448   -2.035426   -0.211406
H      1.628029   -2.097961    0.715184
H     -2.539099    1.019438    1.580118
H     -3.458090    1.441305    0.091913
H     -1.493624    0.847858   -1.309489
H     -1.105548    2.189654   -0.196717
H     -0.527937   -0.747510    0.234411
H     -0.118355    0.585386    1.369000
H      1.227734    1.712632   -0.340416
H      0.835267    0.473997   -1.556420
H      3.060426    0.184194   -0.716994
H      3.267145   -0.520269    1.689669
H      2.916853    1.171974    1.446566
