60

C      2.605075    3.445682   -1.571726
C      2.802660   -3.394439   -0.197912
C     -2.898316    3.505866    0.037645
C     -4.003062   -3.576646   -0.602390
C      3.464829    2.223759   -1.619245
C      2.119193   -2.090199    0.064327
C     -1.890193    2.385746    0.006168
C     -2.798966   -2.691780   -0.735611
C      1.044729    0.552063    3.521315
C     -0.287171    0.158290    3.599407
C      1.605948    0.666494    2.266569
C     -1.028337   -0.110109    2.473384
C      4.160315    0.135504   -0.486887
C      3.600160   -0.810048   -1.496415
C     -3.715001    0.758386    0.273673
C     -4.053116   -0.674204   -0.022514
C      3.285951    1.346144   -0.404666
C      2.182528   -1.148160   -1.111113
C     -2.549967    1.153716   -0.573393
C     -2.842270   -1.512124    0.234642
C      0.857510    0.395979    1.141646
C     -0.470670    0.003014    1.212277
P      1.585647    0.542428   -0.530133
P     -1.453520   -0.353227   -0.291165
H      3.250556    4.318866   -1.874082
H      2.262144    3.611779   -0.527395
H      1.766666    3.424135   -2.294045
H      3.885157   -3.359959    0.012132
H      2.579238   -3.720822   -1.244700
H      2.349999   -4.149295    0.504455
H     -3.653928    3.342270    0.844465
H     -3.464215    3.585248   -0.899748
H     -2.371522    4.463268    0.303172
H     -4.363009   -3.628458    0.444896
H     -3.669731   -4.616416   -0.882467
H     -4.809759   -3.328299   -1.327114
H      4.557703    2.473533   -1.702979
H      3.208194    1.663384   -2.538288
H      1.046689   -2.309609    0.260627
H      2.513338   -1.609895    0.966037
H     -1.035923    2.720561   -0.612907
H     -1.542693    2.169718    1.034367
H     -1.877413   -3.283783   -0.558707
H     -2.750877   -2.341550   -1.778569
H      1.643857    0.766741    4.376850
H     -0.703233    0.076568    4.603163
H      2.639945    0.971578    2.191940
H     -2.061036   -0.412145    2.613736
H      5.153547    0.440808   -0.808439
H      4.243125   -0.384888    0.482517
H      4.183359   -1.744203   -1.445218
H      3.659797   -0.449686   -2.536620
H     -3.554230    0.968166    1.339784
H     -4.585434    1.369109   -0.043377
H     -4.835145   -0.981406    0.702169
H     -4.476858   -0.774458   -1.020606
H      3.420548    1.872435    0.536637
H      1.587895   -1.475519   -1.968107
H     -2.801697    1.277149   -1.626160
H     -2.719004   -1.857060    1.259289
