26

C     -2.843012   -0.533534   -0.357474
C     -2.004932    1.732164   -0.643984
C      1.657854    0.666971   -0.577142
C      1.396200    0.425607    0.921485
C      1.568874   -0.840139   -0.896700
C      0.144794   -0.372748    0.907962
C      0.152412   -1.061356   -0.464937
C      2.521168   -0.553113    1.142530
C     -1.596997    0.322829   -0.296581
N      2.501559   -1.334368    0.112528
O      3.366822   -0.563056    2.241594
O     -1.018087    0.345990    0.956441
O     -0.683670   -0.218030   -1.179959
H     -3.250654   -0.399025   -1.399621
H     -2.567283   -1.598681   -0.278837
H     -3.632337   -0.219164    0.321797
H     -1.305533    2.224259   -1.351095
H     -3.062762    1.789800   -1.005731
H     -1.994760    2.389448    0.274883
H      2.661825    1.048874   -0.748270
H      0.846415    1.203779   -1.055749
H      1.441491    1.299115    1.519866
H      1.817500   -1.079494   -1.905054
H      0.185371   -1.153343    1.715496
H     -0.167779   -2.091091   -0.411254
H      3.865522   -1.431694    2.457806
