17

C      0.766622    0.184008   -0.608375
C     -1.688680   -0.206718   -0.315203
C     -0.297423   -0.577741    0.139101
C      2.114501   -0.211532   -0.130438
N     -1.952936    1.184063   -0.106903
O     -0.161494   -0.299564    1.508247
O      2.197102   -1.072096    0.774547
O      3.274360    0.358361   -0.672276
H      0.642841    1.282874   -0.509495
H      0.701444   -0.029635   -1.698064
H     -2.413643   -0.784206    0.294035
H     -1.833797   -0.538706   -1.362467
H     -0.096249   -1.655174   -0.021158
H     -2.399113    1.398727    0.816782
H     -2.547489    1.548638   -0.890079
H     -0.350729   -1.137622    2.010296
H      4.044684    0.556323   -0.015107
