15

C      0.205206   -1.074516   -0.385871
C     -1.167409   -0.712000    0.085089
C     -0.016496    1.291206   -0.193105
C      0.983160    0.203494   -0.364813
N     -1.294069    0.705840    0.065923
O      1.977335    0.216130    0.626953
H      0.730076   -1.795303    0.278747
H      0.163724   -1.559800   -1.383682
H     -1.936021   -1.191538   -0.565378
H     -1.305732   -1.074111    1.125933
H      0.269346    1.882839    0.711329
H     -0.086322    1.910200   -1.102130
H      1.540663    0.260182   -1.340095
H     -1.733277    1.067498    0.956667
H      1.669815   -0.130119    1.484435
