21

C      2.742002   -0.355581   -0.265828
C      2.490753    0.984713   -0.055381
C      1.646991   -1.190693   -0.336721
C      1.213008    1.478695    0.079328
C     -0.958585   -1.476085   -0.259215
C     -1.880212   -0.339004   -0.730866
C      0.345293   -0.747411   -0.208468
C      0.131513    0.593899    0.000549
C     -1.335047    0.789475    0.105832
N     -1.702200    0.529618    1.484010
H      3.757648   -0.748491   -0.372842
H      3.322095    1.675146    0.006692
H      1.816640   -2.264836   -0.503858
H      1.000510    2.530897    0.245283
H     -1.235278   -1.802877    0.742454
H     -0.924821   -2.269620   -1.016714
H     -2.930039   -0.545985   -0.509644
H     -1.666892   -0.127268   -1.795364
H     -1.656371    1.787663   -0.243624
H     -2.687036    0.192377    1.511041
H     -1.489973    1.305369    2.123335
