21

C     -2.818866    1.005484    0.379642
C     -3.094600    0.036240   -0.557807
C     -1.528433    1.226847    0.804989
C     -2.050104   -0.716385   -1.069374
C      0.964224    0.447127    0.529715
C     -0.497576    0.461731    0.279815
C     -0.744702   -0.511830   -0.657163
C      1.491763   -0.117188   -0.762528
C      2.854423   -0.671136   -0.643696
N      0.499387   -1.142636   -1.031174
O      3.068627   -1.889428   -0.769221
O      3.884915    0.221808   -0.386600
H     -3.660175    1.585034    0.767016
H     -4.115290   -0.154282   -0.908237
H     -1.322729    2.005318    1.555224
H     -2.242546   -1.499008   -1.820131
H      1.366505    1.449019    0.761619
H      1.144764   -0.293616    1.330044
H      1.408778    0.653521   -1.544245
H      0.552366   -2.094816   -1.390305
H      4.839268   -0.001802   -0.662532
