43

C     -5.019946    0.448216    0.355042
C     -2.541812    2.832541   -0.589411
C      3.009755    3.012352   -0.287748
C      4.849363   -1.665859   -1.701997
C     -1.956381   -1.696797   -0.265820
C     -3.929127   -0.572520    0.527479
C     -1.743063    1.973665    0.308134
C      2.537608    1.760771    0.352812
C      3.395125   -1.455114   -1.761345
C     -1.105368   -1.382144    0.937288
C     -0.438082   -0.051599    0.800794
C      1.008027   -0.148075    0.362768
C      1.256450   -1.326274   -0.560297
C      0.656117   -2.588750    0.011691
Br     2.053401   -3.837960    0.574068
O     -3.973957   -1.226471    1.591045
O     -1.528824    2.351363    1.500701
O      3.036424    1.289844    1.401919
O      2.776843   -1.218805   -2.830305
O     -2.967750   -0.745513   -0.438460
O     -1.197473    0.753401   -0.070611
O      1.492486    1.031545   -0.193818
O      2.660127   -1.516091   -0.599749
O     -0.119403   -2.357445    1.121051
H     -4.855729    1.016893   -0.586268
H     -4.965340    1.169944    1.186861
H     -6.001566   -0.104431    0.331315
H     -3.572009    3.015176   -0.178628
H     -2.026093    3.826369   -0.653642
H     -2.586722    2.368541   -1.590625
H      2.536654    3.921780    0.175526
H      2.712112    3.031181   -1.352959
H      4.101114    3.163430   -0.192275
H      5.264304   -1.125845   -0.819919
H      5.128844   -2.727940   -1.585679
H      5.308846   -1.284035   -2.641161
H     -2.468331   -2.686618   -0.159849
H     -1.344404   -1.757052   -1.196539
H     -1.691901   -1.385546    1.874517
H     -0.415179    0.493413    1.790146
H      1.608240   -0.351415    1.275457
H      0.936264   -1.136238   -1.595062
H      0.120357   -3.111888   -0.806625
