28

C      2.439722    1.439444    0.296101
C     -2.085802    1.976142    0.383631
C      0.165240   -2.020048    0.771383
C     -1.138962   -2.006193    0.015449
C      1.281257   -1.347285   -0.024659
C     -1.523242   -0.600976   -0.334281
C      0.820335   -0.082085   -0.680971
C     -0.413831    0.382389    0.055962
N      1.823451    0.898276   -0.862710
N     -0.862443    1.684770   -0.378353
H      2.951408    2.396508   -0.015742
H      3.276479    0.809369    0.699697
H      1.704416    1.632845    1.081187
H     -2.143558    3.061946    0.534442
H     -2.966567    1.648560   -0.222106
H     -2.010209    1.456680    1.365350
H      0.419712   -3.082207    0.948599
H     -0.002336   -1.525509    1.746304
H     -1.891278   -2.499141    0.659593
H     -0.987440   -2.645557   -0.897518
H      1.584089   -2.112376   -0.793883
H      2.115265   -1.227419    0.662268
H     -1.593279   -0.547033   -1.446627
H     -2.477410   -0.340934    0.140943
H      0.459102   -0.379929   -1.708048
H     -0.243786    0.405205    1.132453
H      2.358352    0.893562   -1.733339
H     -1.058685    1.730996   -1.395126
