37

C     -5.021480    0.440336    2.689794
C      5.302019   -1.031297    1.822576
C     -4.576456    1.398326    1.803776
C     -4.556890   -0.862848    2.591509
C      4.896251    0.271043    2.020066
C      4.657304   -1.768129    0.837754
C     -3.660582    1.041182    0.816132
C     -3.639421   -1.194890    1.592914
C      3.888415    0.812736    1.264301
C      3.644327   -1.214429    0.082413
C     -3.189751   -0.243336    0.703544
C      3.248036    0.087186    0.289031
C     -0.806168   -0.067076   -2.263724
C      0.450216    0.725457   -2.209534
C     -2.233989   -0.616050   -0.327111
C      2.193200    0.713705   -0.474426
C     -1.330733    0.226495   -3.622401
C      0.880554    0.764608   -3.632237
O     -1.816985   -1.798896   -0.410584
O      1.856233    1.895461   -0.264083
O     -2.538747    0.221474   -3.971969
O      2.017661    0.985666   -4.122714
O     -1.736726    0.285060   -1.256392
O      1.489726    0.049524   -1.484256
O     -0.242140    0.500981   -4.409018
H     -5.729265    0.696202    3.460267
H      6.091060   -1.424709    2.428466
H     -4.951517    2.405847    1.899106
H     -4.880552   -1.639621    3.264627
H      5.374400    0.879180    2.778996
H      5.004744   -2.788427    0.712540
H     -3.337944    1.833844    0.138558
H     -3.300522   -2.213186    1.545508
H      3.603166    1.856213    1.462348
H      3.169486   -1.836076   -0.679461
H     -0.538226   -1.153765   -2.200100
H      0.321297    1.762206   -1.858529
