28

C      2.854821    0.603168   -0.241341
C     -0.703110    1.795484    2.132139
C     -0.623081   -0.995424   -2.025492
C     -1.561001   -1.560906   -1.049203
C      0.277796    0.119657   -1.576502
C     -1.292533   -1.345344    0.390830
C      0.604280    0.014012   -0.111210
C     -0.715027    0.036508    0.620577
N      1.577205    0.930257    0.361416
N     -0.551015    0.357435    2.016326
H      2.943495    0.877386   -1.301292
H      3.657433    1.085712    0.390062
H      3.024945   -0.511963   -0.075368
H     -0.516908    2.292833    1.136107
H     -1.693644    2.089905    2.501443
H      0.053792    2.245229    2.812926
H     -1.234664   -0.566870   -2.876963
H      0.009080   -1.772867   -2.536829
H     -2.629282   -1.248670   -1.247056
H     -1.595061   -2.680307   -1.217008
H      1.131108    0.213711   -2.243670
H     -0.277305    1.105237   -1.672607
H     -0.531213   -2.094892    0.733003
H     -2.201159   -1.528030    0.991464
H      1.057297   -1.038187    0.012067
H     -1.410557    0.759249    0.153304
H      1.675415    0.906587    1.385007
H     -1.331107   -0.088910    2.537866
