15

C     -0.441237    1.023948   -0.372969
C     -1.466107   -0.095213   -0.209527
C      0.465370   -1.148075    0.215041
C      0.857057    0.224111   -0.282570
N     -0.822929   -0.863544    0.869947
O      1.680587    0.857872    0.635518
H     -0.542786    1.535665   -1.348633
H     -0.524086    1.747856    0.473596
H     -1.407804   -0.697221   -1.132429
H     -2.453667    0.260524    0.058715
H      1.195149   -1.574040    0.910973
H      0.203938   -1.842243   -0.624958
H      1.302328    0.159487   -1.286531
H     -0.663333   -0.157078    1.638409
H      2.617520    0.567949    0.455417
