95

C     11.176106    1.750317    0.227124
C     -4.124069    1.294852   -4.896871
C    -12.622883   -1.117954    1.642952
C    -11.391698    0.412579    2.903237
C    -12.501142    1.183695    0.943930
C     11.382006    0.664763   -0.827563
C     10.387477    0.732621   -1.918446
C      8.962070    0.520602   -1.643227
C      8.461122   -0.779131   -1.184569
C      8.820111   -1.401341    0.070315
C      8.580089   -0.762853    1.342917
C      7.343736   -0.358093    1.953387
C      6.461747    0.687936    1.490348
C      5.754625    0.707518    0.210381
C      4.840562   -0.482280   -0.047207
C      3.796418   -0.537897    1.015525
C      2.890669   -1.716271    0.787338
C      2.200961   -1.631188   -0.531504
C      1.346030   -0.410611   -0.715627
C      0.247185   -0.304632    0.302082
C     -0.696418   -1.474748    0.266760
C    -10.649664   -0.244834    0.734699
C     -1.338225   -1.565936   -1.076435
C     -9.406934    0.470908    1.228917
C     -3.060788   -0.076409   -0.547255
C     -4.789178    1.593212   -0.190912
C     -3.650529    1.602733   -3.529272
C     -3.669528    1.207848   -1.136493
N    -11.804544    0.073486    1.539653
O     -2.801017    2.509843   -3.339937
O     -6.622533    0.397308    2.317906
O     -7.106108    2.555755    0.938345
O     -2.034475   -0.427916   -1.369861
O     -8.357245    0.106166    0.400855
O     -5.655568    0.498834   -0.137357
O     -4.118922    0.912748   -2.422851
P     -6.922401    0.883877    0.908516
H     11.777610    2.654926   -0.024778
H     10.103204    1.998700    0.227359
H     11.462918    1.319358    1.199759
H     -3.738710    0.329562   -5.284457
H     -3.802088    2.072413   -5.602334
H     -5.244430    1.310263   -4.913090
H    -12.043187   -1.836625    2.273565
H    -13.578584   -0.875719    2.144506
H    -12.737102   -1.568731    0.656473
H    -12.273655    0.643284    3.514706
H    -10.894127   -0.497118    3.312263
H    -10.712631    1.294307    2.910775
H    -11.885053    2.091739    1.094861
H    -13.488001    1.306524    1.432256
H    -12.629942    0.960505   -0.137766
H     11.463956   -0.293483   -0.287750
H     12.420478    0.807725   -1.267969
H     10.518473    1.776513   -2.380555
H     10.710493    0.085456   -2.807882
H      8.605397    1.307919   -0.917155
H      8.383423    0.763239   -2.603767
H      7.358095   -0.867442   -1.379880
H      8.791726   -1.568379   -2.045166
H      8.209812   -2.415866    0.080871
H      9.865521   -1.886556    0.037423
H      9.138376   -1.475306    2.125739
H      9.318411    0.132978    1.484633
H      7.634627   -0.052723    3.054230
H      6.737456   -1.328201    2.193671
H      5.631460    0.862384    2.294667
H      7.039398    1.693167    1.525864
H      4.977572    1.580244    0.323013
H      6.277282    0.970723   -0.699997
H      4.332660   -0.258715   -1.027417
H      5.391840   -1.429464   -0.120334
H      4.224710   -0.571954    2.043458
H      3.221199    0.421871    0.985287
H      3.464510   -2.677845    0.792991
H      2.188116   -1.746921    1.648278
H      1.594018   -2.575574   -0.728039
H      2.956739   -1.649122   -1.338481
H      1.990923    0.482640   -0.622905
H      0.972925   -0.421135   -1.757105
H     -0.336262    0.607886    0.046830
H      0.682512   -0.150877    1.295219
H     -0.188010   -2.425850    0.564696
H     -1.472089   -1.321355    1.035032
H    -10.450897   -1.348986    0.721901
H    -10.849708    0.088959   -0.301335
H     -2.000659   -2.483703   -1.130135
H     -0.579004   -1.751277   -1.867787
H     -9.593684    1.554663    1.215339
H     -9.133685    0.143495    2.253629
H     -3.822318   -0.862058   -0.463121
H     -2.650692    0.159896    0.472228
H     -4.376820    1.799987    0.799291
H     -5.361944    2.451447   -0.629671
H     -2.929607    2.020130   -1.131739
