22

C      3.443421   -0.286855    0.613109
C     -2.348636   -0.334177    0.324191
C     -0.915770   -0.584693    0.800220
C     -2.124337    1.034118   -0.333630
C     -0.178967   -0.236049   -0.476875
C      1.229712    0.138922   -0.220449
N     -0.920324    0.793250   -1.132194
O      1.621450    1.276805   -0.587635
O      2.101984   -0.731014    0.405891
Cl     0.686479    0.000000    0.000000
H      3.480308    0.503767    1.379125
H      4.055694   -1.139208    0.965891
H      3.885176    0.095185   -0.336709
H     -2.577846   -1.043666   -0.484308
H     -3.064778   -0.296189    1.137506
H     -0.791783   -1.642496    1.087119
H     -0.652082    0.127315    1.605835
H     -2.976595    1.345871   -0.935828
H     -1.835871    1.776045    0.446579
H     -0.143548   -1.184656   -1.076624
H     -1.287208    0.387723   -2.044319
H     -0.686479    0.000000    0.000000
