22

C      2.789979   -0.412097    0.213617
C      2.503506    0.664021   -0.610677
C      1.772050   -1.045016    0.896134
C      1.218439    1.132483   -0.776051
C     -0.791697   -1.085655    1.350558
C      0.482872   -0.577030    0.731738
C      0.204027    0.490869   -0.086965
C     -1.770783   -0.673513    0.239325
C     -1.262024    0.724877   -0.026829
N     -1.761562    1.276001   -1.260694
O     -1.464829   -1.453470   -0.867973
H      3.805395   -0.750389    0.318568
H      3.309246    1.165566   -1.151441
H      1.973616   -1.891705    1.548676
H      1.005751    1.988849   -1.434574
H     -0.759091   -2.166709    1.480831
H     -1.039695   -0.503988    2.242206
H     -2.806428   -0.721017    0.558888
H     -1.472115    1.371568    0.849503
H     -2.708270    1.682544   -1.108718
H     -1.141337    2.104029   -1.488166
H     -2.087052   -1.320220   -1.617956
