24

C      2.648341    0.671807   -1.242748
C      3.097158    0.699173    0.043384
C      1.386656    0.208356   -1.546992
C      2.302717    0.252747    1.030213
C     -0.778914   -0.821838   -0.840171
C      0.080797   -0.685069    1.780845
C      0.580304   -0.229354   -0.537558
C      1.025017   -0.214592    0.725178
C     -1.807241   -0.669682    0.240011
C     -2.750237    0.412858   -0.203279
N     -1.195229   -0.207641    1.443266
O     -3.039170    0.523741   -1.385666
O     -3.277268    1.295276    0.734967
H      3.308103    1.029266   -2.025467
H      4.057217    1.145126    0.248697
H      1.041189    0.181908   -2.552385
H      2.612380    0.252655    2.075344
H     -1.140425   -0.569381   -1.875296
H     -0.547292   -1.942945   -0.908180
H      0.154714   -1.762683    1.931479
H      0.402297   -0.179387    2.716655
H     -2.351521   -1.595053    0.360009
H     -1.652444    0.489451    2.013996
H     -4.157149    1.715260    0.647078
