14

C     -0.913313   -0.191667   -0.585326
C     -0.196725   -1.507757   -0.254979
C      1.248719    0.139098    0.202075
C     -0.134452    0.716810    0.378891
O     -0.166255    2.030521   -0.013216
O      1.125149   -1.175175   -0.152185
H     -0.640368    0.130076   -1.590591
H     -1.974132   -0.227337   -0.358038
H     -0.611058   -1.804967    0.752636
H     -0.443376   -2.281716   -0.981646
H      1.822672    0.281525    1.120183
H      1.715643    0.713868   -0.650685
H     -0.556778    0.522860    1.381342
H     -0.275724    2.653861    0.751538
