22

C      2.088008    1.126139   -0.964063
C     -2.935828    0.432847    0.365152
C      0.758133   -0.408189    0.404304
C     -0.545136    0.095541   -0.185383
C      1.903857   -0.314641   -0.569533
C     -1.598104   -0.057453    0.895988
O      3.033088   -0.816253    0.046709
O     -1.732994   -1.394727    1.223646
H      1.814472    1.222248   -2.031128
H      1.472631    1.816384   -0.336788
H      3.143448    1.417940   -0.771864
H     -3.458979   -0.430824   -0.074982
H     -2.784350    1.188174   -0.455052
H     -3.535241    0.875079    1.181607
H      1.001722    0.233777    1.264093
H      0.611514   -1.430888    0.798770
H     -0.780993   -0.511562   -1.075000
H     -0.442764    1.138486   -0.519845
H      1.641110   -0.959348   -1.450858
H     -1.372094    0.535505    1.785571
H      3.069435   -1.794478   -0.028924
H     -1.350933   -1.963757    0.497583
