34

C     -2.765255    1.090998   -0.164149
C     -2.190771   -0.715845    1.347993
C      3.510785   -1.054805   -0.919577
C      1.241408   -1.914186   -0.691979
C     -0.206410   -1.698078   -0.449745
C      1.548619    0.507750   -0.960902
C     -0.137780    2.857418    0.706899
C     -2.085426   -0.224353   -0.076137
C      2.126716   -0.748304   -0.376157
C     -0.702371   -0.294854   -0.631407
C      0.249264    0.747957   -0.164133
Cl    -0.708030    4.456515    0.168920
O     -0.155213    2.023619   -0.400352
H     -3.838902    0.891606   -0.461169
H     -2.876252    1.609469    0.814724
H     -2.396199    1.760705   -0.971728
H     -2.291948   -1.829919    1.406650
H     -1.388818   -0.325626    1.998980
H     -3.148487   -0.323582    1.751194
H      4.286462   -0.390114   -0.490572
H      3.706017   -2.134899   -0.711414
H      3.453585   -0.961708   -2.030380
H      1.616625   -2.765598   -0.068691
H      1.452802   -2.213667   -1.742798
H     -0.440832   -2.034609    0.581635
H     -0.775955   -2.370602   -1.125785
H      2.263153    1.318722   -0.804069
H      1.306389    0.303038   -2.018360
H      0.903434    3.025074    1.083097
H     -0.808917    2.544508    1.529561
H     -2.690364   -0.966183   -0.678713
H      2.233911   -0.594709    0.715455
H     -0.806061   -0.147538   -1.749748
H      0.514821    0.571800    0.914490
