15

C     -1.317432    0.228444    0.608647
C     -1.418098    0.179247   -0.715348
C      0.597706    1.176005   -0.207813
C      0.118605    0.241718    0.928485
C     -0.043048    0.258356   -1.270520
C      0.700325   -1.016913    0.401309
N      0.612480   -0.997014   -0.886888
O      1.239731   -2.027876    1.167411
H     -2.154924    0.252755    1.286369
H     -2.341386    0.096550   -1.272311
H      1.682266    1.184499   -0.285608
H      0.103447    2.143068   -0.161180
H      0.417310    0.545532    1.893911
H      0.077033    0.569077   -2.265366
H      1.725986   -2.833447    0.778901
