38

C     -1.646734   -3.803494   -0.030375
C     -2.995484    2.924634   -0.180043
C     -1.368630   -2.978508   -1.109159
C     -1.369574   -3.371785    1.243007
C     -2.901008    2.282245    1.050136
C     -2.084146    2.632670   -1.172519
C      3.717563    0.244228    0.157389
C     -0.810226   -1.720264   -0.882749
C     -0.813134   -2.113354    1.440701
C     -1.891872    1.370528    1.232444
C     -1.069796    1.706368   -0.967889
C      2.455016   -0.626528    0.190558
C      3.174464    1.478786   -0.560006
C     -0.528273   -1.277302    0.387040
C     -0.960112    1.061390    0.241120
C      1.330471    0.263074   -0.200184
C      0.060828    0.062370    0.580545
N      1.848054    1.578066    0.052522
O      0.388359    0.238228    1.934332
H     -2.085680   -4.798490   -0.170956
H     -3.796680    3.646839   -0.320840
H     -1.586946   -3.321287   -2.098392
H     -1.581901   -4.004868    2.091731
H     -3.609079    2.496885    1.848365
H     -2.181717    3.148003   -2.119794
H      4.524099   -0.231389   -0.417149
H      4.022440    0.561918    1.163318
H     -0.616750   -1.126713   -1.760001
H     -0.623487   -1.839685    2.468750
H     -1.851563    0.887793    2.211638
H     -0.352525    1.471464   -1.754057
H      2.573045   -1.440915   -0.551685
H      2.422206   -1.081259    1.173675
H      3.780287    2.373862   -0.376047
H      3.087084    1.297692   -1.657428
H      1.126139    0.137541   -1.310503
H      1.335866    2.364434   -0.342145
H      0.879399   -0.493177    2.331361
