41

C      3.864332    1.065251    0.612983
C     -0.699170   -1.818810   -1.195267
C     -1.124511   -1.776623    1.152762
C     -4.384618    1.653528   -0.183493
C     -3.643610    1.480126   -1.312133
C     -4.014923    1.004134    0.995395
C     -2.523433    0.662277   -1.284943
C     -2.893856    0.200312    0.990488
C      2.266435    0.820933   -1.246591
C      0.808568    0.666466   -1.036552
C      2.646275   -1.064031    0.395720
C      3.211307    0.086806   -0.357073
C     -2.104031    0.001493   -0.147780
C      0.363119   -0.042963    0.204660
C      1.373654   -0.648786    1.085314
C     -0.872113   -0.819398   -0.066638
O      1.787092    0.242871    2.112813
H      4.874436    1.384110    0.253247
H      4.008420    0.651187    1.604548
H      3.243493    1.997575    0.593444
H     -1.160677   -1.404879   -2.153212
H     -1.282569   -2.739188   -0.994783
H      0.340118   -2.096759   -1.299940
H     -2.178778   -2.087530    1.043871
H     -0.972534   -1.291845    2.099221
H     -0.503016   -2.682641    0.989246
H     -5.274332    2.286586   -0.123564
H     -3.960644    1.984063   -2.189021
H     -4.591390    1.132992    1.885080
H     -1.979010    0.514367   -2.189040
H     -2.679582   -0.282770    1.933250
H      2.534260    0.546533   -2.316229
H      2.547383    1.913195   -1.214460
H      0.416053    0.021759   -1.888923
H      0.305623    1.629050   -1.192857
H      3.374348   -1.306209    1.198268
H      2.497554   -1.981956   -0.190428
H      4.083321   -0.341437   -0.945207
H     -0.070556    0.842003    0.837186
H      1.025761   -1.523339    1.651613
H      1.341802    1.121546    1.889023
