18

C      2.335729    0.510347    0.339521
C     -1.973030    0.472652   -0.224938
C      0.986592    0.099976   -0.179383
C      0.096451   -0.161487    1.016391
C     -1.298494   -0.584987    0.605119
O     -1.239119   -1.821588   -0.071259
H      3.084821    0.396293   -0.455442
H      2.308484    1.584188    0.624743
H      2.587602   -0.142035    1.219929
H     -2.964790    0.696526    0.179552
H     -2.067038    0.139586   -1.282229
H     -1.349485    1.398975   -0.148061
H      1.076931   -0.832877   -0.782746
H      0.541738    0.856074   -0.841000
H      0.535270   -0.963637    1.638602
H     -0.010202    0.764205    1.607649
H     -1.857998   -0.776569    1.541911
H     -0.793462   -1.635643   -0.949539
