22

C     -2.397828   -1.003553    0.403571
C     -2.615492    0.494038    0.574473
C     -1.788335    1.215163   -0.465492
C      3.310989   -0.520583    0.511093
C      1.763569    0.166073   -1.371916
C      2.198002   -0.906329   -0.433233
C     -0.337672    0.925119   -0.319384
O      0.265497    1.077512    0.778402
O      2.021879   -0.798654    0.944324
O      0.409934    0.471845   -1.387152
H     -3.032625   -1.531627    1.115516
H     -2.696529   -1.308856   -0.629195
H     -1.341031   -1.250610    0.573293
H     -3.688267    0.679314    0.322352
H     -2.372399    0.806408    1.590560
H     -2.008121    2.292996   -0.364858
H     -2.129868    0.895113   -1.459261
H      4.145536   -1.200423    0.712411
H      3.570034    0.566709    0.608822
H      1.999569   -0.205869   -2.417752
H      2.417959    1.067954   -1.280239
H      2.305198   -1.931742   -0.859904
