20

C      2.793439   -0.328580   -0.173897
C      1.862946   -1.291327   -0.466723
C      2.402923    0.928253    0.261324
C      0.503200   -0.985169   -0.318997
C      1.063840    1.193866    0.394823
C     -2.337227   -0.271680   -0.349395
C      0.074491    0.245543    0.108844
C     -1.323329    0.629235    0.286143
O     -2.349356   -1.555414    0.128620
O     -1.499405    1.891887   -0.317798
H      3.849231   -0.580267   -0.293301
H      2.132895   -2.289351   -0.810999
H      3.180841    1.631601    0.471961
H     -0.191056   -1.772052   -0.563567
H      0.801668    2.194273    0.739655
H     -2.144781   -0.235987   -1.458499
H     -3.333582    0.239111   -0.200003
H     -1.541434    0.799228    1.369701
H     -2.578707   -2.181189   -0.600631
H     -1.366597    1.738019   -1.282164
