22

C      3.153168   -0.083079    0.527297
C      2.779539    0.136193   -0.920500
C      1.375936    0.700299   -0.964957
C     -3.466148    0.809002   -0.456521
C     -1.776946   -0.940582    0.368598
C     -3.197672   -0.370321    0.323809
C      0.448985   -0.259158   -0.337640
O      0.878207   -1.344900    0.126354
O     -3.424187    0.826301    0.960023
O     -0.909296    0.009401   -0.244144
H      2.493733    0.541932    1.176389
H      4.188321    0.339433    0.686468
H      3.096307   -1.135437    0.835946
H      3.460196    0.905887   -1.371254
H      2.845967   -0.812199   -1.471850
H      1.317627    1.672653   -0.464627
H      1.041756    0.856521   -2.019843
H     -4.457810    0.962987   -0.930533
H     -2.645594    1.360462   -0.929753
H     -1.525362   -1.133949    1.416902
H     -1.712446   -1.884440   -0.185121
H     -3.964284   -1.157006    0.510167
