21

C     -1.648722   -1.077410   -1.031323
C      2.923444    0.298465   -0.018650
C      2.041322    0.903557   -0.880061
C      2.446877   -0.565644    0.972307
C      0.689546    0.650098   -0.756359
C      1.098878   -0.813847    1.090105
C     -1.252629   -0.431297    0.298376
C      0.215949   -0.207264    0.226762
C     -1.915138    0.886864    0.458503
O     -1.271046    1.963334    0.515216
O     -3.294973    0.960874    0.551396
H     -2.596089   -1.632086   -0.920002
H     -1.656062   -0.348530   -1.850766
H     -0.841053   -1.815337   -1.255374
H      3.982901    0.444448   -0.051199
H      2.413770    1.567535   -1.640627
H      3.113733   -1.057926    1.666111
H     -0.006428    1.128950   -1.437760
H      0.747032   -1.483821    1.860886
H     -1.524697   -1.122716    1.107137
H     -3.666617    1.751753    1.095322
