40

C      4.648478    0.071816    1.020182
C     -3.420545   -1.710807    2.780286
C     -4.180714    2.622561   -1.223335
C     -2.290524   -2.408509    2.430755
C     -3.163131    2.552336   -2.150138
C     -3.773499   -0.654705    1.970591
C     -4.168114    1.691177   -0.213536
C     -1.520087   -2.110825    1.344777
C     -2.176649    1.599370   -2.077428
C      0.170005   -0.097153   -0.553871
C      4.266150   -0.107650   -0.426132
C     -2.988378   -0.337426    0.848574
C     -3.166650    0.724889   -0.140840
C     -1.862162   -1.045523    0.514306
C     -2.150531    0.645800   -1.056508
C     -1.286708   -0.462943   -0.691490
C      4.832613    0.955363   -1.285825
C      2.241248   -1.243348   -0.068056
N      2.840805   -0.228196   -0.576430
O      4.083022    1.625317   -2.028017
O      6.177950    1.198938   -1.262414
O      2.948844   -2.221903    0.621518
O      0.855793   -1.298996   -0.249976
H      3.744120    0.432683    1.562086
H      4.948185   -0.906544    1.431904
H      5.470759    0.807331    1.145088
H     -3.987384   -1.998717    3.654997
H     -4.956925    3.374332   -1.282914
H     -2.016722   -3.249504    3.082515
H     -3.180141    3.301711   -2.955844
H     -4.664896   -0.083842    2.223717
H     -4.971189    1.753733    0.510049
H     -0.632901   -2.656543    1.067598
H     -1.389962    1.554544   -2.804796
H      0.535763    0.380767   -1.468783
H      0.355575    0.588645    0.295194
H      4.736655   -1.068665   -0.782648
H     -1.374579   -1.237119   -1.499311
H      6.664515    1.834970   -1.882008
H      3.801915   -2.587363    0.176163
