28

C      0.386496   -1.593678   -0.745357
C     -2.542272    0.225021    0.041851
C     -1.954765   -1.022068    0.632986
C     -1.570148    1.070140   -0.716523
C      2.665196    0.337098   -0.193596
C     -0.655130   -0.746489    1.331695
C      1.701281   -0.272767    0.818850
C      0.701174    1.779005   -0.733698
C     -0.160391    0.814180   -0.416356
C      2.124829    1.680664   -0.502075
C      0.350408   -0.441462    0.212315
O      2.907501    2.654009   -0.548212
H      0.025327   -2.505418   -0.184442
H      1.426103   -1.842749   -1.041113
H     -0.213198   -1.427435   -1.657474
H     -3.038703    0.780553    0.872837
H     -3.360330   -0.088693   -0.642688
H     -1.902766   -1.846286   -0.101866
H     -2.675966   -1.382877    1.424126
H     -1.710576    0.958229   -1.820213
H     -1.846615    2.145932   -0.512250
H      3.696560    0.370232    0.193466
H      2.667747   -0.229680   -1.152053
H     -0.786200    0.233920    1.869364
H     -0.322052   -1.544287    1.988018
H      2.093981   -1.249162    1.107151
H      1.644273    0.430576    1.672819
H      0.348239    2.713492   -1.197563
