36

C      5.534617   -0.750087   -0.279572
C      4.503341   -1.409495    0.365696
C      5.279031    0.430182   -0.930412
C      3.248963   -0.850384    0.329251
C      4.015103    1.004334   -0.973644
C     -4.112138   -0.509322    0.209725
C     -1.221460    1.042536    1.654951
C     -1.571252   -0.293838   -1.792665
C      3.008180    0.333777   -0.327492
C     -2.947925    0.450163    0.175688
C     -1.671924   -0.172272   -0.305541
C     -2.626834    0.553685    1.659822
C     -0.655947    0.796915    0.272137
C     -3.649476   -1.463771    1.239078
C      1.658920    0.903324   -0.347462
O     -2.594485   -1.072136   -2.280680
O     -4.020996   -2.641881    1.373544
O      1.401328    1.979181   -0.934865
O     -2.722533   -0.827592    2.041884
O      0.625029    0.247123    0.296561
H      6.516395   -1.188228   -0.250723
H      4.709855   -2.344307    0.880211
H      6.064064    0.955462   -1.435679
H      2.435173   -1.351793    0.827011
H      3.818150    1.930303   -1.485103
H     -4.965525    0.051377    0.659806
H     -4.351705   -0.965909   -0.746977
H     -0.559705    0.528633    2.373990
H     -1.224868    2.122590    1.907508
H     -0.616675   -0.847476   -2.003443
H     -1.454495    0.685474   -2.294775
H     -3.179880    1.414344   -0.275048
H     -1.533870   -1.126472    0.226762
H     -3.340838    1.176369    2.209596
H     -0.679533    1.753982   -0.299729
H     -3.116087   -0.544790   -2.934426
