69

C      6.508053    2.976052    3.245038
C     -3.818820   -3.078451    1.363597
C     -3.796601    0.967482   -4.318843
C     -3.090946    3.689718    1.976008
C      5.776572    1.858873    3.587348
C      6.443241    3.360401    1.923297
C     -3.597195   -1.919141    2.071598
C     -3.424855   -3.112626    0.045656
C     -4.493879    0.303516   -3.306435
C     -2.531766    1.410365   -4.046618
C     -1.918675    2.984117    2.196528
C     -3.903702    3.302681    0.959543
C      5.015340    1.145834    2.685085
C      5.693000    2.667745    1.006212
C     -2.992159   -0.794405    1.494434
C     -2.828146   -2.014334   -0.535798
C     -3.936195    0.094446   -2.066454
C     -1.961384    1.196892   -2.779834
C     -1.554271    1.920050    1.432733
C     -3.567145    2.206812    0.142539
C      0.396707   -3.362307    0.382400
C      3.104237   -2.389705   -0.488472
C      0.499114    0.172448   -0.602925
C      4.977394    1.562300    1.376071
C     -2.610534   -0.848922    0.191190
C     -2.671400    0.541114   -1.805222
C     -2.408370    1.536083    0.386893
C      0.753737   -2.308407   -0.648418
C      1.229873   -1.041003    0.006935
C      1.953793   -2.885133   -1.374820
C      2.680582   -0.984875   -0.267448
C      1.284215   -4.518899    0.062268
C      4.178836    0.822454    0.401544
C     -1.980411    0.347757   -0.461447
O      1.502028   -5.535787    0.745815
O      4.154797    1.223303   -0.801499
O     -0.723573    0.260243   -0.532313
O      1.876277   -4.285572   -1.196036
O      3.440191   -0.290388    0.688103
H      7.105029    3.524942    3.980827
H     -4.297181   -3.947454    1.844633
H     -4.259658    1.123484   -5.298875
H     -3.349965    4.543506    2.614995
H      5.802218    1.521980    4.627417
H      7.006975    4.246127    1.590054
H     -3.910317   -1.889430    3.124260
H     -3.592154   -4.017012   -0.524150
H     -5.492357   -0.036199   -3.548127
H     -1.984142    1.925105   -4.824382
H     -1.278835    3.297099    3.004951
H     -4.841381    3.829910    0.747681
H      4.450001    0.257092    3.021745
H      5.671439    3.000549   -0.008555
H     -2.877406    0.045227    2.149139
H     -2.506701   -2.024085   -1.587346
H     -4.510865   -0.420999   -1.314950
H     -0.965027    1.577769   -2.654495
H     -0.639883    1.347025    1.587674
H     -4.249418    1.937150   -0.657829
H      0.607987   -3.000704    1.418190
H     -0.632891   -3.708923    0.242537
H      3.010486   -3.012548    0.449418
H      4.076482   -2.522913   -0.984162
H      0.991477    0.329498   -1.654867
H      1.047388    1.043947   -0.060561
H     -0.029765   -2.131044   -1.386773
H      1.064942   -1.042083    1.100201
H      2.104707   -2.537786   -2.381603
H      2.820858   -0.439961   -1.235775
