22

C      3.617191    0.609499    0.407143
C      2.773404   -0.538301   -0.095460
C     -1.915823   -1.080819    0.135037
C     -3.019939   -0.020010    0.288026
C     -0.982443   -0.372457   -0.784540
C     -2.197506    1.217119    0.186358
C      0.408997   -0.878867   -0.659852
N     -1.090153    1.010387   -0.399823
O     -2.647474    2.440816    0.698022
O      0.661491   -2.072650   -0.960620
O      1.430290   -0.081738   -0.225298
H      4.671251    0.451345    0.050334
H      3.200492    1.546480   -0.058558
H      3.561043    0.708193    1.500873
H      3.148103   -0.820408   -1.096985
H      2.842700   -1.436287    0.547506
H     -1.479573   -1.266673    1.135935
H     -2.335485   -2.004815   -0.281198
H     -3.493398   -0.112813    1.287148
H     -3.736347   -0.061986   -0.544432
H     -1.363950   -0.470873   -1.822791
H     -2.052870    3.234859    0.794496
