26

C     -2.983253   -0.261122   -0.728619
C      3.309247   -1.089110    0.191452
C      2.268541   -1.973392    0.348040
C      0.140553    2.415192   -0.621496
C      3.031633    0.233070   -0.069707
C      1.429497    1.986509   -0.474381
C      0.949175   -1.531734    0.244303
C     -0.883721    1.504061   -0.462902
C     -1.824606   -0.672626    0.144371
C      1.724518    0.648821   -0.167004
C     -0.666512    0.160170   -0.153196
C      0.647990   -0.206122   -0.018093
N     -2.208973   -0.171736    1.531839
H     -2.608071   -0.173842   -1.785386
H     -3.790635   -1.039944   -0.737777
H     -3.376941    0.722785   -0.429328
H      4.326069   -1.453021    0.276613
H      2.430151   -3.030732    0.554370
H     -0.066072    3.436880   -0.862226
H      3.821093    0.953616   -0.200962
H      2.271558    2.649092   -0.578888
H      0.124764   -2.205845    0.351095
H     -1.880150    1.880549   -0.576700
H     -1.715970   -1.726334    0.275816
H     -3.066505   -0.623641    1.832028
H     -1.403378   -0.431544    2.116740
