22

C      3.341112    0.389193   -0.322106
C      2.690154    0.521945    1.037604
C     -1.328138   -0.773627   -1.065525
C     -2.802631   -0.427365   -0.803474
C     -0.820231   -0.711180    0.359401
C     -2.623869    0.630197    0.220043
C      0.629180   -0.602266    0.460237
N     -1.519822    0.463279    0.860027
O     -3.511324    1.658544    0.464008
O      1.337140   -1.558992    0.057317
O      1.290684    0.497576    0.976442
H      3.372371   -0.658057   -0.671779
H      4.394758    0.718036   -0.204259
H      2.874372    1.059615   -1.048205
H      2.973762    1.546972    1.410455
H      3.128350   -0.192276    1.749557
H     -1.217382   -1.751563   -1.524841
H     -0.858148    0.060510   -1.630541
H     -3.245496   -1.334863   -0.346515
H     -3.311561   -0.091942   -1.702852
H     -1.209859   -1.590365    0.908262
H     -3.583420    2.146628    1.346862
