38

C     -3.220663   -0.985334    0.374542
C     -3.684062    0.568110   -1.311070
C      2.021881    2.372529    2.389477
C      2.728115    2.199439    0.157190
C     -0.525991   -2.979972   -1.109599
C      2.862045   -1.441590   -0.475356
C     -1.460685    0.221691   -0.725881
C      0.909487    0.864634    0.982178
C     -0.391585   -0.759802   -0.417954
C      0.941349   -0.169638   -0.097561
N     -2.747722   -0.454149   -0.871559
N      2.202458    1.429041    1.272770
O     -0.263421   -1.682149   -1.421567
O      1.762856   -1.219058    0.294756
H     -3.383787   -2.082840    0.288117
H     -4.228561   -0.568525    0.618607
H     -2.579955   -0.707550    1.237018
H     -3.328271    1.594319   -1.071079
H     -3.871745    0.539970   -2.398371
H     -4.676956    0.468411   -0.794549
H      1.184496    1.983102    3.023498
H      2.935827    2.303882    3.005325
H      1.756284    3.374291    2.059360
H      3.363997    1.610810   -0.527625
H      1.949846    2.798519   -0.348854
H      3.422982    2.961709    0.623662
H     -0.370781   -3.593659   -2.046123
H     -1.548188   -3.175835   -0.775503
H      0.152032   -3.429336   -0.361909
H      2.581354   -1.674410   -1.546803
H      3.687731   -0.741438   -0.407104
H      3.293772   -2.429316   -0.125665
H     -1.608484    1.015031    0.004334
H     -1.309863    0.745630   -1.709485
H      0.222718    1.700822    0.782333
H      0.544717    0.393159    1.930989
H     -0.717786   -1.330618    0.500076
H      1.394560    0.280119   -1.000614
