46

C      7.684796   -0.730905    0.151785
C      7.248815    0.546954    0.335573
C      6.786752   -1.772861    0.106275
C      5.872865    0.773964    0.476444
C      5.418035   -1.522698    0.249220
C      3.068908    1.068354    1.367879
C      2.585844   -0.743679   -0.061835
C      1.716450    1.291877    1.482447
C      1.235793   -0.511740    0.059536
C     -3.586728   -1.342795   -1.764258
C     -3.856234   -0.663377    1.116341
C     -4.567986    2.074381   -0.398215
C      4.965444   -0.236824    0.435449
C      3.544166    0.037162    0.587035
C      0.776701    0.520422    0.841750
C     -4.395660   -0.208330   -1.184107
C     -3.582499    0.936503   -0.682651
C     -4.947516   -0.881282    0.078202
C     -3.025966    0.482097    0.645984
C     -4.536944   -2.489997   -1.532208
C     -0.623851    0.834015    1.026223
O     -3.914786    3.206824    0.079724
O     -4.809388   -3.445040   -2.295371
O     -0.972439    1.788559    1.759593
O     -5.064982   -2.257508   -0.250205
O     -1.655296    0.116463    0.418518
H      8.751373   -0.951146    0.037501
H      7.953654    1.365167    0.371235
H      7.085590   -2.804833   -0.037752
H      5.534828    1.791648    0.622147
H      4.722918   -2.345842    0.212230
H      3.764037    1.694312    1.884528
H      2.984730   -1.559590   -0.678372
H      1.419634    2.134383    2.124259
H      0.532090   -1.150277   -0.467805
H     -2.691217   -1.582780   -1.160224
H     -3.369246   -1.211721   -2.842346
H     -3.229988   -1.580808    1.205199
H     -4.339021   -0.388533    2.073147
H     -5.326332    1.753444    0.344397
H     -5.121038    2.355121   -1.307900
H     -5.187088    0.047802   -1.885882
H     -2.805609    1.289699   -1.364229
H     -5.897462   -0.417079    0.363399
H     -3.047179    1.368178    1.342702
H     -3.098970    3.322316   -0.474566
