79

C     -7.378103   -1.089304   -1.265376
C     -8.446271    1.094492   -1.314475
C     -3.396521   -1.839417    0.727358
C     10.011415    0.056713   -0.659619
C      3.490584   -1.380770    1.476000
C     -0.551618   -0.133371    2.056146
C     -5.868966   -0.212207    1.178973
C     -7.050877    0.552637    0.595486
C     -4.623969    0.276520    0.523773
C      3.564494    1.912004    0.327339
C      2.153183    2.110237   -0.015722
C     -2.202442    1.779906    0.493461
C     -0.768698    2.217140    0.355336
C      5.569028   -1.406026   -0.586632
C      1.151107   -1.557631    0.041097
C      4.095716   -1.260720   -0.879762
C     -0.329607   -1.401014   -0.001915
C      5.559770    0.688250    0.795380
C     -7.177036    0.353929   -0.883461
C     -3.348008   -0.368827    0.995992
C      8.544190    0.243225   -0.888420
C      4.128941    0.734050    0.446169
C      6.243647   -0.102791   -0.319911
C      1.367788    0.911107    0.416828
C     -2.224023    0.258820    0.220223
C     -0.051663    0.997179   -0.083694
C      1.957589   -0.332758   -0.209526
C      3.382898   -0.508169    0.244316
C     -0.848191   -0.118605    0.599941
O      8.177937    0.930681   -1.876269
O      7.597936   -0.320202   -0.043038
H     -7.616552   -1.736785   -0.397868
H     -8.239608   -1.222001   -1.982104
H     -6.487370   -1.465223   -1.833406
H     -8.724664    0.827256   -2.353685
H     -8.285280    2.188251   -1.301728
H     -9.301852    0.844157   -0.677188
H     -4.428127   -2.263227    0.684070
H     -2.920473   -2.141983   -0.230486
H     -2.897237   -2.419480    1.552173
H     10.162054   -0.269334    0.406920
H     10.526667    1.016212   -0.771306
H     10.457780   -0.660486   -1.361091
H      3.454462   -2.472526    1.221829
H      2.743889   -1.148336    2.252920
H      4.501884   -1.254075    1.928465
H     -0.337450    0.879185    2.477301
H      0.380980   -0.751492    2.216534
H     -1.303779   -0.587634    2.701703
H     -5.836541   -0.015324    2.263396
H     -6.095235   -1.275085    0.993260
H     -6.849953    1.623150    0.784471
H     -7.974713    0.196643    1.070932
H     -4.713788   -0.002312   -0.569546
H     -4.604586    1.381881    0.638830
H      4.160215    2.845326    0.489231
H      1.745055    2.990493    0.537114
H      1.983860    2.296490   -1.098595
H     -2.528042    1.995375    1.519511
H     -2.792289    2.293973   -0.288208
H     -0.646071    3.001849   -0.440799
H     -0.372924    2.680437    1.281724
H      6.032494   -1.841671   -1.496000
H      5.745152   -2.143237    0.229845
H      1.492785   -2.092744    0.968733
H      1.412904   -2.282463   -0.788478
H      3.934363   -0.759468   -1.833946
H      3.646457   -2.263609   -0.919077
H     -0.735053   -1.596649   -1.015794
H     -0.734426   -2.236877    0.646411
H      5.786718    0.279074    1.797394
H      6.017209    1.713173    0.776352
H     -6.362639    0.781048   -1.476934
H     -3.211006   -0.256029    2.096477
H      6.102873    0.534342   -1.241877
H      1.455049    0.823505    1.507454
H     -2.359624    0.152177   -0.864137
H     -0.032348    0.874683   -1.172231
H      1.918554   -0.145707   -1.324559
