79

C     -6.442338   -0.686775   -3.270441
C     -4.836125    0.910775   -2.399996
C     -4.236802   -1.576172    2.861846
C      9.215502    0.062360   -1.815213
C      2.626149   -0.082913   -1.722916
C     -1.658324    0.082432   -0.559148
C     -5.287923   -0.363111    0.359481
C     -6.153407   -0.543990   -0.874087
C     -4.227937   -1.431292    0.447696
C      3.012025    2.213972    0.848336
C      1.701013    2.012397    1.517283
C     -2.506769    0.924375    2.193157
C     -1.306492    1.738614    1.678606
C      5.218681   -0.412673    0.762364
C      0.925883   -1.341613   -0.026718
C      4.056273   -1.016512    0.036912
C     -0.332202   -1.636345    0.732430
C      4.890284    1.632991   -0.551322
C     -5.410558   -0.471899   -2.170178
C     -3.341887   -1.421725    1.605903
C      8.217984    0.529390   -0.824464
C      3.581777    1.323552    0.059611
C      5.910226    0.699569    0.050333
C      0.914031    1.015733    0.733607
C     -2.271100   -0.479667    1.830955
C     -0.304103    0.656973    1.466495
C      1.752804   -0.261441    0.596588
C      2.974091    0.000878   -0.253186
C     -1.182177   -0.393238    0.758444
O      8.603281    1.231723    0.168960
O      6.854211    0.243202   -0.911396
H     -6.410711   -1.746608   -3.597475
H     -6.146685   -0.077368   -4.142666
H     -7.456087   -0.375030   -2.953208
H     -3.758170    0.827958   -2.673979
H     -4.950610    1.571281   -1.522996
H     -5.302642    1.432264   -3.278848
H     -4.831170   -2.506964    2.759730
H     -4.847427   -0.680775    3.014165
H     -3.590900   -1.712123    3.756721
H      9.387286    0.844978   -2.567432
H      8.926761   -0.894591   -2.299518
H     10.182427   -0.054645   -1.258957
H      3.412383    0.353552   -2.337739
H      1.697479    0.513741   -1.934476
H      2.522252   -1.141195   -2.031091
H     -2.667964    0.520740   -0.558686
H     -1.660936   -0.749499   -1.291840
H     -1.014532    0.886121   -1.005730
H     -5.980134   -0.383348    1.224714
H     -4.905583    0.664013    0.287930
H     -6.957453    0.219438   -0.909444
H     -6.681624   -1.540169   -0.842163
H     -4.851168   -2.391029    0.542851
H     -3.745216   -1.592029   -0.540143
H      3.532499    3.164292    1.025869
H      1.113231    2.973000    1.532936
H      1.891947    1.686147    2.569659
H     -3.376335    1.444954    1.842044
H     -2.475778    1.081154    3.316931
H     -0.968584    2.477891    2.430880
H     -1.534924    2.230999    0.715216
H      4.850339   -0.018193    1.738114
H      5.945492   -1.202883    1.013411
H      1.558332   -2.273266   -0.020876
H      0.718453   -1.049385   -1.083061
H      3.633188   -1.804199    0.686656
H      4.409661   -1.504541   -0.901974
H     -0.842089   -2.496007    0.271809
H     -0.037364   -1.855466    1.781341
H      4.884532    1.567766   -1.662904
H      5.170404    2.675811   -0.306174
H     -4.630361   -1.215406   -2.322136
H     -2.836949   -2.467639    1.612560
H      6.510630    1.284510    0.807546
H      0.790519    1.426410   -0.284551
H     -1.662290   -0.910966    2.718362
H     -0.037397    0.228260    2.436572
H      2.067204   -0.591533    1.606200
