21

C      2.819642    0.201955    0.323448
C      2.305666    0.855090   -0.762094
C      2.020488   -0.616298    1.103599
C      0.987020    0.695262   -1.076820
C      0.690760   -0.758660    0.760923
C     -2.129477    0.502695    0.307057
C      0.144785   -0.108234   -0.333835
C     -1.289448   -0.280269   -0.678588
N     -1.606032   -1.685280   -0.587637
O     -1.839916    1.855640    0.235102
H      3.870269    0.325743    0.578962
H      2.934143    1.498851   -1.376007
H      2.397943   -1.148670    1.971745
H      0.595636    1.230066   -1.953852
H      0.085093   -1.397656    1.377559
H     -1.900125    0.122953    1.322635
H     -3.208093    0.293644    0.137421
H     -1.426973    0.060266   -1.713972
H     -2.517254   -1.877577   -1.064074
H     -1.637272   -1.945137    0.429919
H     -1.296855    2.175616    0.998508
