36

C     -5.267469   -1.303447    0.677685
C     -3.035525   -0.458743    1.353725
C     -4.003284    0.305089   -0.712350
C     -1.918074    0.333371    1.112846
C     -2.887749    1.085030   -0.935913
C      2.750114    0.462557   -0.273353
C      3.393481   -0.605421    0.537505
C     -4.064199   -0.467191    0.444672
C     -1.839849    1.104707   -0.027319
C      1.319020    0.131492   -0.580406
C      4.828753   -0.264603    0.857988
C      1.090979   -1.094361   -1.336409
N      5.283264    0.846599    0.417396
N      0.772152    1.304033   -1.235789
O      5.613677   -1.125847    1.599342
O      0.484327   -0.999298   -2.456800
O      1.457313   -2.376025   -0.982256
O     -0.857918    3.313687   -1.136050
O      0.051441    2.612126    0.982772
S     -0.452335    2.087318   -0.329562
H     -6.164263   -0.693373    0.389015
H     -5.293887   -1.600487    1.739143
H     -5.227792   -2.189467    0.009194
H     -3.104140   -1.063825    2.241508
H     -4.797319    0.310086   -1.432309
H     -1.107212    0.345885    1.822381
H     -2.850466    1.677173   -1.831635
H      3.252361    0.649838   -1.244847
H      2.729479    1.441093    0.273283
H      3.357287   -1.564142   -0.014334
H      2.878503   -0.681451    1.514564
H      0.792388    0.007151    0.407326
H      4.728158    1.525609   -0.144550
H      0.561916    1.188861   -2.226190
H      6.642224   -1.040807    1.606476
H      0.884644   -3.203217   -1.160991
