35

C     -0.190964   -2.975355   -1.248331
C      5.539411    1.517354   -0.503506
C     -5.278390    1.787369    0.606452
C      4.553914    1.384511   -1.459992
C      5.415187    0.889158    0.713387
C     -5.452354    0.421669    0.501858
C     -4.017623    2.304846    0.729408
C      3.448728    0.615672   -1.176788
C      4.274939    0.114932    0.964003
C     -4.376982   -0.423587    0.519621
C     -2.912317    1.473753    0.750218
C     -0.054905   -1.824238   -0.272577
C      3.285831   -0.028930    0.027053
C     -3.108436    0.110991    0.644276
C     -1.234789   -0.924136   -0.366070
C      2.127779   -0.838976    0.333649
N     -1.981505   -0.725801    0.666204
O     -1.582500   -0.269118   -1.539256
O      1.962708   -1.434544    1.427286
O      1.081583   -1.022345   -0.588720
H      0.553375   -2.916870   -2.056115
H     -1.209653   -2.940349   -1.714887
H     -0.068269   -3.964886   -0.742148
H      6.399585    2.123338   -0.740535
H     -6.178692    2.387097    0.584268
H      4.654683    1.876650   -2.408954
H      6.191647    1.004805    1.442991
H     -6.437940   -0.005716    0.404189
H     -3.880852    3.364935    0.810711
H      2.674910    0.509192   -1.923064
H      4.188873   -0.368864    1.913335
H     -4.461487   -1.492631    0.441351
H     -1.908916    1.869004    0.846950
H     -0.000511   -2.250803    0.728924
H     -2.016071    0.651872   -1.550062
