18

C      1.748633    0.362595   -0.188174
C     -0.886831   -0.872245   -1.138884
C      0.931094   -0.607711    0.574627
C     -1.217341    0.684574    0.701921
C     -0.534900   -0.582323    0.278493
O     -0.874106    1.787569   -0.033495
H      1.343720    0.675564   -1.154431
H      2.749746   -0.109071   -0.414332
H      2.011716    1.283305    0.397534
H     -1.428206   -0.009921   -1.620249
H     -1.586043   -1.735453   -1.247868
H     -0.022659   -1.096887   -1.787722
H      1.059242   -0.432473    1.661330
H      1.291062   -1.644921    0.360264
H     -1.129854    0.850727    1.814328
H     -2.320261    0.517282    0.544953
H     -0.989363   -1.405760    0.905352
H     -0.145650    2.335150    0.346353
