36

C     -2.956523    0.954687    3.327528
C     -2.065805   -1.018226    2.053812
C     -2.280273    1.032053    0.927955
C     -1.574046   -1.599354    0.886927
C     -1.793551    0.456359   -0.226502
C      2.562499   -0.042060   -0.904575
C      2.282478   -0.195195    0.539599
C     -2.427523    0.307221    2.094384
C     -1.431528   -0.867662   -0.271599
C      1.412936   -0.203795   -1.846477
C      1.367970    0.794072    1.124882
C      2.000676    0.014999   -3.228920
N      1.046188    1.910202    0.574310
N      0.834403   -1.532534   -1.820831
O      0.765978    0.574732    2.380535
O      1.947047   -0.848495   -4.114418
O      2.606364    1.230894   -3.465784
O     -1.306238   -3.059622   -1.725786
O     -1.542125   -0.966296   -2.901253
S     -0.844956   -1.606229   -1.731564
H     -2.166752    0.992861    4.104508
H     -3.328589    1.963488    3.059151
H     -3.773894    0.334216    3.738247
H     -2.173353   -1.605667    2.959695
H     -2.571178    2.078451    0.979435
H     -1.297198   -2.639943    0.880211
H     -1.683599    1.029711   -1.126111
H      2.930230    1.018008   -1.048324
H      3.433438   -0.657982   -1.241016
H      3.265212   -0.056499    1.085530
H      1.978564   -1.235195    0.811010
H      0.628235    0.538554   -1.728341
H      1.407932    2.217174   -0.341934
H      1.298667   -2.207274   -2.434347
H      0.613473    1.349107    3.026592
H      2.834842    1.545238   -4.396527
