41

C     -3.319994    0.855381   -2.383196
C     -2.008908    0.242757   -2.132121
C      6.066985   -0.451844    1.451368
C     -4.115553   -1.121661    2.167565
C      5.054294    0.293366    1.966043
C      5.827889   -1.328499    0.415722
C     -2.942662   -1.775250    1.881452
C     -4.418583    0.050065    1.513090
C      3.753296    0.196156    1.467822
C      4.546640   -1.407682   -0.059086
C     -2.016061   -1.305944    0.939411
C     -3.485148    0.521947    0.564367
C      3.468125   -0.652698    0.444107
C     -2.320290   -0.139655    0.288612
C      2.207602   -0.756300   -0.197304
C     -1.136432    1.840731   -0.496328
C     -0.129820   -0.358103   -0.746104
C      1.213962    1.531776   -0.124188
C     -1.389713    0.428282   -0.748001
N      0.025858    2.292343   -0.216707
N      1.138665    0.151040   -0.382166
O      1.995612   -1.942661   -0.727173
O     -2.214214    2.761550   -0.561756
O     -0.187253   -1.603259   -1.110381
O      2.308963    2.073805    0.169483
H     -3.459505    1.914635   -2.179837
H     -4.162172    0.290423   -1.876897
H     -3.614976    0.742001   -3.491347
H     -2.101502   -0.881304   -2.247416
H     -1.240142    0.577420   -2.888103
H      7.097659   -0.409674    1.807703
H     -4.793413   -1.547325    2.916445
H      5.290494    0.971423    2.782560
H      6.640210   -1.932440   -0.002030
H     -2.705289   -2.699986    2.399214
H     -5.335862    0.573217    1.728500
H      3.018890    0.792283    2.007647
H      4.332209   -2.085939   -0.871726
H     -1.111235   -1.890748    0.796947
H     -3.813921    1.447943    0.110450
H     -1.964706    3.742427   -0.600200
