23

C     -1.354818   -1.206884    1.002837
C     -2.389140    0.896630   -0.931154
C      3.041033    0.918847   -0.234074
C      2.895479   -0.433485   -0.427009
C      1.921615    1.701055   -0.092537
C      1.652330   -0.976150   -0.475183
C      0.648737    1.113344   -0.146386
C     -0.841437   -0.910881   -0.393818
C      0.469925   -0.237686   -0.338549
N     -1.809203   -0.346731   -1.253265
H     -0.546908   -1.792673    1.508931
H     -2.227241   -1.888474    0.937914
H     -1.549928   -0.291476    1.588136
H     -2.472109    1.144417    0.142474
H     -1.979760    1.722876   -1.559356
H     -3.477357    0.850930   -1.268800
H      4.047552    1.339043   -0.198374
H      3.755641   -1.095360   -0.544211
H      2.028199    2.765011    0.059873
H      1.528236   -2.059584   -0.629091
H     -0.198649    1.766639   -0.024363
H     -0.642243   -1.956080   -0.817229
H     -2.499955   -1.023328   -1.634530
