47

C      5.512234   -0.278287    0.361042
C      4.487990    0.774944    0.711211
C      4.861831   -1.504468   -0.233165
C     -5.840124    1.017791   -1.233875
C     -4.748428    1.305234   -2.050494
C     -5.617088    0.297343   -0.060824
C      3.561060    1.090889   -0.425615
C      3.348305   -1.364465   -0.184989
C     -3.477039    0.890195   -1.712310
C     -4.070201   -0.891779    1.541400
C     -2.920996   -0.135561    2.189676
C     -0.850861    0.098799   -0.995010
C      0.669680   -0.083402    1.025979
C     -4.350344   -0.117193    0.278176
C      2.984526   -0.164829   -1.019017
C     -3.284015    0.173341   -0.536681
C     -1.955056   -0.314365   -0.108324
C     -0.529795    0.405341    1.729941
C      1.556684   -0.073953   -1.345023
N      0.476041   -0.017039   -0.425183
N     -1.795884   -0.010220    1.281023
O     -0.409924    1.173639    2.706308
O      1.308548   -0.043487   -2.608467
H      6.012893   -0.575139    1.305812
H      6.278285    0.135263   -0.341904
H      5.079338    1.695136    0.993733
H      3.911120    0.437656    1.587587
H      5.213236   -1.608786   -1.294808
H      5.187176   -2.447807    0.271789
H     -6.834417    1.337732   -1.490459
H     -4.949395    1.865199   -2.953954
H     -6.449094    0.050325    0.609378
H      2.806064    1.824633   -0.077634
H      4.122999    1.667829   -1.230576
H      3.089244   -1.248171    0.874407
H      2.948974   -2.295658   -0.635937
H     -2.657313    1.132130   -2.373226
H     -3.773480   -1.910377    1.287005
H     -4.930739   -0.817564    2.235648
H     -2.669188   -0.561880    3.159797
H     -3.312384    0.909794    2.352292
H     -0.858144   -0.517215   -1.916025
H     -0.928567    1.157964   -1.327653
H      1.529316    0.492770    1.378339
H      0.755683   -1.174271    1.337642
H      3.551217   -0.334284   -1.983966
H     -2.039965   -1.443746   -0.159721
