32

C      3.642983    0.754101    1.790049
C      3.944922   -0.414364    1.126769
C      2.672172    1.593669    1.322599
C      3.259386   -0.739047   -0.021069
C      1.989258    1.266323    0.175673
C     -2.362512   -0.583302   -1.245172
C     -3.404664   -0.013609   -0.336469
C      2.289110    0.089575   -0.497508
C     -0.996318   -0.594247   -0.726543
C     -3.200813    1.387523    0.052435
C     -0.943472   -1.413703    0.513932
N      0.016254   -1.087432   -1.578753
O     -2.247659    2.079208   -0.370235
O     -4.071032    2.048063    0.932621
O     -0.135310   -2.379090    0.643885
O     -1.754853   -1.197968    1.616858
O      1.209340    1.061289   -2.653290
O      2.268176   -1.095800   -2.827732
S      1.361639   -0.239883   -1.949359
H      4.198144    1.000998    2.706098
H      4.702809   -1.062218    1.498713
H      2.466107    2.507005    1.878931
H      3.458548   -1.648615   -0.582289
H      1.220997    1.937616   -0.188759
H     -2.507101   -0.064870   -2.216395
H     -2.662371   -1.652057   -1.471129
H     -4.374940   -0.003134   -0.957379
H     -3.640631   -0.609361    0.560834
H     -0.679159    0.425145   -0.399754
H      0.129099   -2.099057   -1.606650
H     -3.688469    2.753897    1.520698
H     -2.159637   -2.006654    2.095654
