26

C     -4.023395    0.394154    0.615146
C      4.063364    1.378144   -0.425161
C     -2.724553    0.765622    0.000500
C      2.751048    1.183120    0.240678
C     -0.429217    0.055522   -0.542044
C      0.654329   -0.062791    0.531999
C     -0.163818   -1.012668   -1.514108
C      0.552971   -1.335666    1.259909
O     -2.536802    1.882233   -0.511224
O      2.376868    1.985787    1.140195
O      0.920044   -1.037829   -2.125795
O     -1.105798   -1.979270   -1.747820
O      1.519937   -2.116262    1.299345
O     -0.616098   -1.666610    1.901040
O     -1.706569   -0.148079   -0.001903
O      1.890742    0.149587   -0.071684
H     -4.762842    1.151813    0.317741
H     -3.934005    0.360594    1.717029
H     -4.372654   -0.604912    0.283502
H      4.886450    0.896076    0.145096
H      4.021237    0.939432   -1.458384
H      4.332170    2.452567   -0.524833
H     -0.308142    1.066682   -0.987886
H      0.516755    0.755220    1.295161
H     -0.930464   -2.845425   -2.237954
H     -0.871559   -2.607040    2.170806
