26

C      3.663709    1.132662   -0.195225
C     -3.014273    1.737496    1.633771
C      2.646732    0.075282   -0.407048
C     -2.514925    0.668215    0.774498
C      0.437278   -0.832668   -0.063901
C     -0.824011   -0.275723   -0.751919
C      0.046585   -1.503618    1.201524
C     -0.449030    0.002305   -2.124074
O      2.932889   -0.933229   -1.102612
O     -3.152673   -0.386569    0.621164
O      0.529364   -1.167870    2.289013
O     -0.882897   -2.527906    1.138504
O     -0.529524    1.060111   -2.756254
O      0.080363   -1.068340   -2.847843
O      1.384883    0.183186    0.151129
O     -1.345811    0.666656    0.055579
H      4.024359    1.157138    0.856919
H      3.240698    2.095774   -0.481312
H      4.546620    0.942358   -0.838156
H     -4.105941    1.597396    1.776812
H     -2.810454    2.759824    1.226622
H     -2.557752    1.725938    2.646026
H      0.908729   -1.608260   -0.697576
H     -1.523738   -1.165761   -0.782111
H     -0.893714   -3.281031    1.812675
H      0.162534   -1.053366   -3.862734
