35

C      3.630871    0.161400   -0.905505
C      3.904835   -1.255919    1.186450
C     -0.846169    3.710672    0.981344
C     -3.317475    0.530675    0.302356
C     -3.712510   -1.707630   -0.358740
C     -2.484843    1.587153    0.526491
C     -3.172230   -2.888174   -0.809111
C      0.825565    0.104112   -0.397707
C     -2.815387   -0.669411   -0.148988
C     -0.601655    0.234376   -0.161375
C     -1.145343    1.412180    0.288510
C      1.681601   -0.040667    0.807737
C     -1.820283   -2.993148   -1.026419
C     -1.468777   -0.835255   -0.384958
C      3.164753   -0.171649    0.490468
O     -1.373179   -4.117572   -1.446312
O     -0.298620    2.502743    0.521553
O     -1.032580   -1.982042   -0.810436
O      2.616887    0.900281    1.170328
H      3.319260    1.177575   -1.221648
H      4.747976    0.187445   -0.874917
H      3.344371   -0.599686   -1.637687
H      3.548232   -2.238506    0.774478
H      4.987175   -1.221275    0.986079
H      3.721274   -1.302466    2.278901
H     -1.223182    3.553189    2.016955
H     -1.664341    4.025659    0.299009
H     -0.099483    4.523293    0.975662
H     -4.396751    0.632471    0.481553
H     -4.766721   -1.598392   -0.180163
H     -2.915443    2.524514    0.883828
H     -3.838878   -3.740408   -0.990600
H      1.171363    1.025846   -0.950682
H      0.998183   -0.770635   -1.063642
H      1.331502   -0.660751    1.674799
