27

C     -0.109087   -1.278340    1.475960
C      0.679423    0.153319   -1.860069
C     -0.097040    1.265414   -1.191463
C     -0.809824   -1.538961   -0.997823
C      1.760653    0.229055    0.981517
C     -1.101006    1.512932    1.098149
C      0.619616   -1.002741   -0.897799
C     -1.591644   -0.425366   -0.382500
C      0.524318   -0.319004    0.439526
C     -0.580810    0.626460    0.063466
Br     2.766229    1.439661   -0.074271
Br     0.168079    2.808289    1.735403
O     -2.793298   -0.304112   -0.229195
H      0.142729   -0.797202    2.465340
H      0.339606   -2.271919    1.423951
H     -1.210122   -1.259778    1.418409
H      1.664549    0.418048   -2.217920
H      0.094779   -0.135566   -2.783954
H      0.495370    2.185216   -1.022650
H     -0.982319    1.566007   -1.831772
H     -0.894345   -2.472116   -0.395307
H     -1.080422   -1.696041   -2.060765
H      2.450049   -0.652925    1.182437
H      1.644213    0.668782    2.013437
H     -1.966660    2.083059    0.686417
H     -1.513189    0.943923    1.960320
H      1.380155   -1.746093   -0.998843
