20

C     -1.212954   -0.068459   -1.235280
C      0.214382   -0.456573   -1.078326
C     -1.984983   -0.191096    0.039258
C     -0.002098    0.412161    1.269453
C      0.672027   -0.551814    0.354524
C      2.124395   -0.281292    0.372216
N     -1.381983    0.618030    1.041855
O      2.935263   -1.128556    0.794766
O      2.575169    0.935633   -0.090632
H     -1.296062    1.002414   -1.574064
H     -1.725144   -0.691619   -2.016489
H      0.854751    0.239671   -1.656611
H      0.365947   -1.483372   -1.520395
H     -2.154649   -1.225425    0.353684
H     -3.009755    0.238075   -0.162573
H      0.126512    0.013804    2.318438
H      0.536859    1.398669    1.286299
H      0.491780   -1.579910    0.729280
H     -1.675041    1.621706    0.992289
H      3.545583    1.177954   -0.217692
