27

C      1.188124   -0.219416   -1.562321
C     -0.265691   -0.782309    1.749723
C     -1.073340    0.427299    1.324773
C     -0.574567   -1.845206   -0.410050
C      1.626198    0.967484    0.589800
C     -1.101823    1.820268   -0.685933
C      0.451835   -1.254001    0.507739
C     -1.364882   -0.656636   -0.842218
C      0.680219    0.109747   -0.174987
C     -0.751167    0.517799   -0.153591
Br     3.351616    0.069375    0.790127
Br    -0.764765    2.112124   -2.534409
O     -2.301641   -0.627959   -1.586763
H      1.803856   -1.145703   -1.538170
H      1.891388    0.596263   -1.884539
H      0.381672   -0.388836   -2.288275
H      0.405024   -0.569299    2.591295
H     -0.981578   -1.558044    2.070507
H     -2.167335    0.257561    1.480851
H     -0.709143    1.291292    1.893734
H     -0.133087   -2.386914   -1.267627
H     -1.199014   -2.562884    0.172056
H      1.249537    1.124799    1.606468
H      1.822832    1.916568    0.085948
H     -2.205402    1.986697   -0.510446
H     -0.606720    2.612105   -0.086323
H      1.347853   -1.812173    0.662632
