58

C      0.364064   -0.611261   -1.238200
C     -4.596000   -0.290548    2.603062
C     -4.000886    2.141770   -1.452620
C     -5.775954    1.269038   -0.047729
C     -1.269635    1.205432   -0.394409
C     -4.455702   -1.652159    0.603638
C      6.326289   -0.535086    2.338655
C      8.320116   -1.259358    1.195680
C      5.021331   -0.060871    2.323591
C     -2.127076    0.241570    0.351756
C     -5.189968   -1.357425   -0.664593
C      8.970768   -1.495488    0.004788
C      1.127469    1.355016   -0.019850
C      2.500364    0.855877   -0.140284
C      5.124115   -0.097591   -0.057355
C      0.130419    0.663024   -0.536416
C     -4.217748   -0.408908    1.351968
C      7.020588   -0.787083    1.155310
C      4.420090    0.157942    1.100688
C     -3.516602    0.699739    0.580551
C      6.416605   -0.567279   -0.064588
C     -4.547074   -0.250439   -1.476338
C      8.320643   -1.258917   -1.188989
C     -4.356353    0.991870   -0.622222
O     -3.361665   -0.627763   -2.069507
O      8.934817   -1.481838   -2.287267
O      3.115517    0.632040    1.119373
O      7.100414   -0.815492   -1.154224
H      0.818426   -1.338299   -0.518083
H      1.094251   -0.517229   -2.084653
H     -0.572824   -0.993109   -1.678347
H     -4.439395    0.613571    3.195704
H     -5.086457   -1.108970    3.092719
H     -3.348529    2.922047   -0.956825
H     -3.636758    1.922378   -2.481460
H     -4.948010    2.749863   -1.661839
H     -6.521933    1.150237   -0.865711
H     -5.779721    2.284418    0.396483
H     -5.991559    0.550247    0.754049
H     -1.250390    2.168954    0.137262
H     -1.634155    1.413570   -1.434124
H     -5.066165   -2.389461    1.174563
H     -3.512632   -2.176932    0.332655
H      6.820695   -0.714989    3.291755
H      8.760440   -1.419625    2.159766
H      4.537215    0.114782    3.274505
H     -1.643078    0.127742    1.372956
H     -2.065590   -0.796123   -0.061217
H     -5.189905   -2.266413   -1.288788
H     -6.255120   -1.091922   -0.496347
H      9.985227   -1.864160    0.023406
H      0.951519    2.287584    0.493118
H      2.598831   -0.059017   -0.738471
H      3.118949    1.658627   -0.639133
H      4.616432    0.087257   -0.993479
H     -3.539274    1.577595    1.248292
H     -5.263533    0.021053   -2.277161
H     -3.355900   -1.569494   -2.349277
