58

C     -0.465471    1.535651    0.300420
C     -3.166711    0.708674    1.961849
C     -2.959331   -3.860443    0.683508
C     -3.545441   -2.910720    2.827899
C     -0.067633   -1.066397    0.092626
C     -3.612583   -0.091128   -0.344861
C      4.551320    1.965077    0.188137
C      6.915742    2.378252    0.060236
C      3.317885    1.886916   -0.419837
C     -1.270433   -1.851719    0.307935
C     -4.427104   -1.391995   -0.566687
C      8.029292    2.710900   -0.677332
C      0.520841    0.509554   -1.616511
C      0.711057    1.840171   -2.208338
C      4.345130    2.473991   -2.472910
C     -0.045121    0.311314   -0.396304
C     -2.995698   -0.217959    1.038511
C      5.673233    2.291915   -0.512870
C      3.181296    2.140955   -1.774001
C     -2.289444   -1.488163    1.267101
C      5.558483    2.552039   -1.881131
C     -4.638679   -1.990921    0.779612
C      7.832897    2.951471   -2.014541
C     -3.398927   -2.588623    1.330692
O     -5.733768   -2.854746    0.825732
O      8.824682    3.260069   -2.730371
O      2.026807    2.095690   -2.472375
O      6.657949    2.869934   -2.557780
H     -0.529008    1.251682    1.393307
H     -1.462002    1.912700    0.008467
H      0.288486    2.361411    0.299449
H     -3.760447    1.596836    1.752977
H     -2.736954    0.624604    2.936100
H     -2.176795   -4.333098    1.327791
H     -3.833241   -4.553596    0.731730
H     -2.563781   -3.787342   -0.326058
H     -2.652036   -3.515282    3.091686
H     -4.434044   -3.513957    3.015094
H     -3.532749   -1.940185    3.368482
H      0.670236   -1.702820   -0.534738
H      0.553507   -1.044880    1.085554
H     -2.818327    0.033678   -1.063910
H     -4.256971    0.793058   -0.329918
H      4.614681    1.755166    1.262734
H      7.023512    2.177786    1.122047
H      2.452985    1.621331    0.144771
H     -0.933874   -2.957965    0.537232
H     -1.715460   -2.010684   -0.749780
H     -3.986824   -2.037768   -1.319891
H     -5.393717   -1.027311   -1.000929
H      8.980665    2.770657   -0.208763
H      0.847537   -0.347051   -2.182844
H      0.267962    2.677818   -1.614425
H      0.122336    1.806697   -3.187624
H      4.244123    2.672391   -3.529933
H     -1.792515   -1.459876    2.296007
H     -4.911559   -1.127179    1.462613
H     -6.105992   -2.866578   -0.093809
