42

C     -2.603982   -1.164145   -0.924032
C     -2.529722    0.308621    1.009505
C      2.737135    0.764095   -0.695995
C      2.551846   -0.230188    1.521120
C     -1.059632    2.259680   -0.661251
C      1.010599   -2.302222    0.551779
C     -1.840720    1.122756   -1.242966
C      0.351371    1.900742   -0.312359
C     -0.316996   -1.624208    0.924383
C      0.265314   -1.001709   -1.243952
C      1.556457   -1.360083   -0.487556
C     -1.839059   -0.028407   -0.284859
C      1.844333   -0.047214    0.194381
C     -0.466799   -0.455186   -0.007687
C      0.492312    0.612736    0.414931
O      0.313780    0.839228    1.784575
H     -3.594694   -0.728991   -1.247728
H     -2.142193   -1.565419   -1.822157
H     -2.876182   -1.929888   -0.161242
H     -2.339459   -0.549871    1.708340
H     -2.063724    1.192315    1.512735
H     -3.620515    0.483171    0.878516
H      3.764581    0.355959   -0.595241
H      2.472269    0.689294   -1.768572
H      2.809234    1.832610   -0.365697
H      1.904974   -0.575497    2.324163
H      3.454460   -0.850843    1.364436
H      2.907394    0.796761    1.822732
H     -1.607989    2.716733    0.188356
H     -1.003695    3.061626   -1.449792
H      1.678070   -2.388836    1.417773
H      0.845570   -3.274430    0.063178
H     -1.401592    0.795323   -2.194269
H     -2.896429    1.462302   -1.354751
H      0.964189    1.978468   -1.230823
H      0.733991    2.714588    0.368353
H     -1.101193   -2.364516    0.745084
H     -0.340930   -1.351029    1.985722
H     -0.150891   -1.942462   -1.591351
H      0.429655   -0.232337   -1.994995
H      2.331271   -1.744950   -1.116993
H      0.377587    1.825423    1.974205
