81

C      7.690500    0.988154    1.526678
C      9.910181    1.304874    0.637573
C      5.317847    1.377045   -0.833556
C      1.080236   -2.094451   -0.660627
C     -9.319750    2.085519    0.616688
C     -6.889234    1.805416    2.139641
C     -7.495152   -1.043711   -2.764032
C     -3.074171    1.449585    0.435609
C      7.300754   -1.136273   -0.835171
C      3.130910   -0.066845    0.516441
C     -1.260756   -0.812942    0.603217
C      8.334082   -0.151715   -0.615198
C      5.879330   -1.047333   -0.502010
C      3.514155   -0.350637   -0.879367
C      1.723217   -0.277480    0.884447
C     -0.284829   -1.674684    1.376872
C     -5.035678   -1.280673   -1.197112
C     -2.629090   -0.873927    1.191416
C     -3.793697   -0.402790   -0.994586
C      8.742485    0.309680    0.734034
C      5.005598   -0.029448   -1.098583
C      1.102628   -1.607957    0.759486
C     -8.215556    1.212039    0.147727
C     -7.051191    1.065931    0.858529
C     -7.335157   -0.292175   -1.482955
C     -6.187226   -0.432074   -0.776961
C     -8.362347    0.513492   -1.057223
C     -6.037770    0.260601    0.421804
C     -3.572174   -0.003983    0.415461
O     -9.555909    0.688146   -1.748071
O     -4.845864    0.073240    1.093150
H      7.407541    1.945635    1.020032
H      8.211654    1.365998    2.474877
H      6.872679    0.339474    1.782857
H     10.221587    1.529602    1.677104
H     10.755009    0.894340    0.086809
H      9.576224    2.253612    0.191309
H      5.199354    1.639422    0.262645
H      4.621323    2.076628   -1.415600
H      6.315750    1.738796   -1.107181
H      1.781067   -2.946460   -0.857554
H      1.152206   -1.297165   -1.424257
H      0.070256   -2.577003   -0.822279
H     -9.869336    1.649894    1.470374
H     -8.955510    3.115555    0.856705
H    -10.051837    2.221000   -0.207383
H     -6.287379    2.721291    1.891079
H     -7.840611    2.146162    2.552701
H     -6.257050    1.228721    2.849812
H     -6.936201   -2.020764   -2.686701
H     -8.546777   -1.351197   -2.918122
H     -7.106961   -0.473969   -3.606303
H     -2.494072    1.658878   -0.505181
H     -3.897111    2.165710    0.466934
H     -2.455428    1.596918    1.344110
H      7.402250   -1.449870   -1.950832
H      7.660651   -2.131079   -0.356955
H      3.810493   -0.555022    1.267871
H      3.341280    1.035817    0.687359
H     -1.276945   -1.122576   -0.450550
H     -0.886236    0.231712    0.638643
H      9.318504   -0.676532   -1.006807
H      8.322989    0.707704   -1.357658
H      5.449064   -2.077954   -0.887431
H      5.737258   -1.159839    0.612354
H      2.955016    0.287441   -1.576200
H      3.444342   -1.413741   -1.197754
H      1.643024    0.022369    1.987939
H      1.083173    0.512285    0.393223
H     -0.577005   -2.727357    1.429056
H     -0.234264   -1.290629    2.405649
H     -4.976227   -2.225372   -0.659034
H     -5.034095   -1.503721   -2.287459
H     -3.040142   -1.922413    1.121878
H     -2.667981   -0.557223    2.250123
H     -2.925230   -0.827259   -1.485833
H     -4.049454    0.541545   -1.564212
H      9.135547   -0.575492    1.335899
H      5.100058   -0.167875   -2.237195
H      1.724253   -2.364250    1.347317
H     -9.733075    0.233633   -2.605691
