38

C     -5.176988    0.566523   -0.106732
C      5.827681    0.798434    0.338792
C     -4.422132   -0.717058   -0.348472
C     -3.083434   -0.566844    0.361544
C     -2.363991    0.618076   -0.243550
C     -1.019361    0.853827    0.400341
C      1.886610   -1.466038    0.351911
C      1.473871   -1.456116   -1.105735
C      1.995021    0.956674    0.216637
C      1.206557   -0.199425    0.852471
C     -0.160606   -0.342404    0.219228
C      0.219485   -0.652674   -1.174693
C      3.410184    0.896290    0.656372
O     -0.340684   -0.342663   -2.207267
O      3.652948    0.873367    1.892736
O      4.499737    0.859808   -0.203491
H     -4.861949    1.015369    0.882126
H     -6.260507    0.338933   -0.058830
H     -4.901096    1.271061   -0.899795
H      5.893806    0.090967    1.185819
H      6.471452    0.402978   -0.460272
H      6.184277    1.821229    0.580287
H     -4.232102   -0.841926   -1.428499
H     -4.972633   -1.616750    0.042331
H     -3.217202   -0.479801    1.434728
H     -2.542325   -1.521143    0.157191
H     -2.978165    1.554453   -0.112141
H     -2.324830    0.452992   -1.333397
H     -1.212892    0.954289    1.498944
H     -0.547423    1.780327    0.055402
H      1.405426   -2.324505    0.827870
H      2.968868   -1.437320    0.483535
H      2.258030   -1.030091   -1.770750
H      1.219750   -2.476141   -1.454931
H      1.509328    1.931085    0.428549
H      1.986878    0.805979   -0.861945
H      1.185191   -0.148529    1.940119
H     -0.636781   -1.223233    0.692756
