55

C      0.660682   -3.215862   -0.940113
C     -3.488788    0.759892    1.427616
C     -3.461000    1.727019   -0.801009
C      3.103681    0.777332    0.798073
C     -0.782255    0.280033   -2.388524
C     -0.286587    2.217180    0.717415
C     -1.469550   -2.113381   -0.855225
C     -2.455209   -1.004927   -0.736546
C     -1.779638    2.393976    0.869232
C      0.053736    1.795859   -0.683188
C      2.849796   -1.051531   -0.800907
C      1.661509   -0.634024   -1.616387
C      3.104891   -1.487383    1.624272
C     -0.165390   -1.976573   -0.799010
C     -1.676870    0.121243   -0.044123
C      2.847192   -0.987026    2.981498
C     -2.568468    1.267701    0.303872
C      2.457139   -0.581416    0.580718
C     -0.497246    0.413564   -0.889205
C      0.542055   -0.681735   -0.607088
O      3.325094   -1.626403    3.952030
O      2.110998    0.145900    3.276987
O      1.090616   -0.570047    0.639106
H      0.003335   -4.129433   -1.052197
H      1.249569   -3.409728   -0.045746
H      1.255655   -3.207180   -1.883579
H     -3.740009    1.570788    2.130452
H     -2.974379   -0.032144    2.006424
H     -4.394617    0.328325    0.939602
H     -4.307674    2.315135   -0.336489
H     -2.913151    2.472855   -1.415816
H     -3.932539    0.938342   -1.384203
H      2.442562    1.445980    1.369240
H      4.111891    0.679596    1.250729
H      3.285848    1.280666   -0.192898
H     -0.677670   -0.754328   -2.745383
H      0.048802    0.848081   -2.901800
H     -1.707793    0.783857   -2.682682
H      0.190429    3.190736    0.928172
H      0.063964    1.499128    1.481069
H     -1.900902   -3.110698   -1.000441
H     -3.356271   -1.275443   -0.177052
H     -2.771841   -0.693992   -1.764133
H     -1.960876    2.561869    1.964910
H     -2.096633    3.349271    0.380368
H      1.100263    1.932447   -0.930579
H     -0.515534    2.488922   -1.371378
H      3.766514   -0.501819   -1.130509
H      3.102392   -2.109228   -0.834823
H      1.476308   -1.281079   -2.496798
H      1.857217    0.378142   -2.010703
H      4.203922   -1.408280    1.424460
H      2.829705   -2.541069    1.505664
H     -1.339753   -0.327749    0.925077
H      2.424881    0.748641    4.041546
