29

C      3.575530   -1.187242    0.680812
C      2.804172   -1.708644   -0.505993
C      1.391267   -1.228102   -0.545701
C      1.312192    0.279541   -0.618208
C     -3.010517   -0.075351    1.597172
C     -0.108606    0.753138   -0.657775
C     -2.171315    0.433141    0.484075
C     -0.093901    2.231388   -0.727730
N     -4.029835   -0.995908    1.121043
N     -0.905319    0.257271    0.421489
O     -2.779716    1.135416   -0.544859
O      0.555197    2.817546   -1.613184
O     -0.801505    2.981758    0.190220
H      3.572597   -0.101955    0.777168
H      4.634023   -1.505150    0.570846
H      3.227558   -1.654731    1.637640
H      3.356484   -1.466307   -1.430744
H      2.802068   -2.815549   -0.425245
H      0.821103   -1.634147    0.303137
H      0.922221   -1.616189   -1.472560
H      1.794199    0.756162    0.265776
H      1.797723    0.574276   -1.577083
H     -3.553429    0.759288    2.107777
H     -2.408061   -0.612061    2.352894
H     -0.556719    0.332041   -1.604397
H     -3.750347   -1.410879    0.206295
H     -4.941141   -0.489004    0.939843
H     -2.366957    1.255892   -1.439422
H     -1.088965    3.934363   -0.003618
