40

C     -3.001445    0.980647   -1.187178
C     -5.112012    0.644981    0.064099
C      0.241291   -2.529300   -0.203150
C      5.881781    1.260226   -0.422817
C     -1.783183   -1.001489    0.977158
C      2.164132    0.694001    0.494260
C     -3.086613   -0.282752    1.002134
C     -0.643008   -0.306338    0.293839
C      1.822105   -0.604248   -0.141152
C      3.386948    1.361773   -0.029547
C     -3.735900    0.063921   -0.280264
C      0.576040   -1.205194    0.454621
C      4.633848    0.638710    0.084319
O      4.754273   -0.461664    0.571133
H     -2.616065    0.446771   -2.097920
H     -3.773989    1.746069   -1.552699
H     -2.215252    1.590530   -0.728523
H     -5.704532    0.640304   -0.863578
H     -5.534212   -0.025004    0.846094
H     -4.944128    1.672093    0.430815
H     -0.054262   -3.294408    0.553709
H      1.106470   -2.943852   -0.769372
H     -0.582541   -2.432302   -0.935041
H      5.816152    1.206658   -1.549114
H      6.794372    0.772251   -0.070455
H      5.833417    2.341814   -0.186835
H     -1.990803   -2.007872    0.490577
H     -1.509757   -1.235328    2.042128
H      2.254165    0.544478    1.590801
H      1.312917    1.403982    0.266342
H     -3.802112   -0.743295    1.736819
H     -2.862259    0.722351    1.508348
H     -0.528263    0.684947    0.711752
H     -0.836962   -0.260115   -0.816536
H      1.616358   -0.403602   -1.227079
H      2.607127   -1.375066   -0.060670
H      3.485240    2.340899    0.491671
H      3.222629    1.623607   -1.106704
H     -3.908758   -0.891605   -0.857381
H      0.716792   -1.377580    1.528868
