20

C     -2.292572   -0.838005   -0.388561
C      0.525301   -1.097542   -0.508801
C      0.807953    1.168113    0.262947
C      1.899255   -1.274292   -0.437404
C      2.164367    0.978235    0.328366
C     -1.459631    0.386036   -0.207944
C     -0.007121    0.117192   -0.159503
C      2.712815   -0.237651   -0.019796
Cl     4.446208   -0.484519    0.062375
N     -1.879287    1.076279    0.997966
H     -3.307066   -0.655292    0.067451
H     -1.908807   -1.743529    0.078674
H     -2.418751   -1.048451   -1.482573
H     -0.092814   -1.911947   -0.834922
H      0.372240    2.116321    0.533696
H      2.377385   -2.202855   -0.697690
H      2.816566    1.795013    0.658463
H     -1.657413    1.072782   -1.058097
H     -1.630774    2.089371    0.945648
H     -1.467853    0.694742    1.859703
