38

C      3.750980    1.978209   -0.693426
C     -4.860021    2.586113   -0.426945
C      3.192358    1.014843    0.336549
C      3.143728   -0.355871   -0.281489
C      2.584673   -1.323594    0.746314
C      1.214996   -0.941129    1.185873
C     -1.956558   -1.750174    0.349289
C     -1.372607   -2.286625   -0.965788
C     -1.596377    0.661827   -0.307522
C     -1.139565   -0.501433    0.510969
C      0.271907   -0.909030    0.033968
C      0.075413   -2.178701   -0.675031
C     -2.965030    1.093861   -0.006580
O      0.891649   -3.003752   -0.984170
O     -3.653147    0.529890    0.876024
O     -3.541030    2.148528   -0.697023
H      2.963782    2.172687   -1.442776
H      4.639214    1.474838   -1.163096
H      4.102304    2.900000   -0.189587
H     -5.576993    2.084252   -1.122335
H     -5.163162    2.285497    0.596320
H     -4.971228    3.677255   -0.547018
H      2.185236    1.370008    0.630046
H      3.859818    1.049742    1.204651
H      2.574421   -0.382866   -1.216908
H      4.194261   -0.678356   -0.534684
H      2.621862   -2.343683    0.333530
H      3.304530   -1.331776    1.616711
H      0.849908   -1.766121    1.870373
H      1.195664    0.000049    1.769913
H     -3.030695   -1.619136    0.287101
H     -1.628545   -2.468427    1.128925
H     -1.710958   -3.310533   -1.174368
H     -1.693891   -1.557595   -1.742317
H     -1.410755    0.524404   -1.394193
H     -0.923824    1.522825   -0.020438
H     -1.053876   -0.198258    1.576393
H      0.631559   -0.167767   -0.718316
