38

C     -4.918341   -0.211375    0.473476
C      6.102334    0.476776    0.212033
C     -3.609842    0.559767    0.465900
C     -3.068174    0.562297   -0.924325
C     -1.801500    1.261073   -1.159465
C     -0.549290    0.884106   -0.497838
C      1.023961   -0.552728    1.349577
C     -0.305822   -1.298376    1.462978
C      2.406443    0.125520   -0.657740
C      1.337262   -0.725557   -0.090588
C     -0.022950   -0.487714   -0.755255
C     -0.783015   -1.471928    0.067842
C      3.719026   -0.075805   -0.006566
O     -1.613661   -2.250531   -0.326921
O      3.817884   -0.918949    0.911481
O      4.840059    0.635189   -0.377254
H     -4.910169   -1.057058    1.183966
H     -5.132156   -0.650719   -0.536403
H     -5.750337    0.457793    0.733839
H      6.099550   -0.497403    0.782459
H      6.251612    1.318966    0.914951
H      6.874141    0.477162   -0.570137
H     -3.830237    1.611616    0.749183
H     -2.950377    0.057308    1.179329
H     -3.857799    1.158329   -1.538764
H     -3.190020   -0.445044   -1.361761
H     -2.016476    2.370837   -0.994552
H     -1.581722    1.236831   -2.281870
H      0.214521    1.678440   -0.753054
H     -0.691273    1.036517    0.621393
H      1.786167   -1.052555    1.996705
H      0.927365    0.495546    1.632027
H     -0.045583   -2.315023    1.871534
H     -1.011811   -0.780755    2.103638
H      2.552067   -0.214502   -1.728288
H      2.167098    1.189196   -0.739706
H      1.520319   -1.827118   -0.263594
H      0.000745   -0.760126   -1.820191
