40

C     -4.713733    0.303415   -0.142353
C     -3.733904   -1.295148   -1.704437
C      0.992483    1.989674   -0.378798
C      5.430502   -0.668882    0.037885
C     -1.961795    1.249393    0.471720
C      2.548645   -0.306656    0.302424
C     -2.233211   -0.021668   -0.245658
C     -0.747571    1.270393    1.306089
C      1.001887   -0.342675    0.397832
C      3.028110   -1.700479   -0.010357
C     -3.535109    0.038280   -1.041126
C      0.574273    1.045207    0.706513
C      4.484676   -1.799566   -0.127060
O      4.966554   -2.891311   -0.378989
H     -4.568848   -0.194331    0.855094
H     -4.946869    1.379511   -0.032369
H     -5.595158   -0.187125   -0.603560
H     -4.345396   -1.206760   -2.638981
H     -4.293264   -1.989361   -1.033961
H     -2.753136   -1.732591   -1.988847
H      2.069918    2.230998   -0.346355
H      0.761385    1.534093   -1.385990
H      0.340480    2.892961   -0.328944
H      6.073893   -0.532293   -0.857032
H      6.104276   -0.923210    0.882047
H      4.946981    0.282095    0.254763
H     -2.837187    1.393614    1.184646
H     -2.049793    2.146267   -0.198245
H      2.971037    0.003261    1.259863
H      2.851660    0.357576   -0.531514
H     -1.449844   -0.111258   -1.054550
H     -2.226528   -0.894323    0.409429
H     -0.909720    0.542894    2.162305
H     -0.688284    2.260026    1.874212
H      0.705530   -1.076612    1.149960
H      0.672398   -0.717877   -0.584009
H      2.724595   -2.336317    0.872545
H      2.522770   -2.156417   -0.878616
H     -3.496884    0.821977   -1.800354
H      1.314183    1.343225    1.577753
