36

C      6.426234   -0.025145   -0.981415
C      3.704227    0.578980   -0.944360
C      2.367615    0.900245   -0.951804
C      3.387590   -1.020875    0.800248
C     -3.274002    0.096666    1.224921
C     -3.156875   -0.005930   -1.494228
C     -0.200501   -1.424234    1.296955
C     -6.477653    0.686499   -0.303909
C      4.224189   -0.370202   -0.082629
C      1.536059    0.240486   -0.060685
C     -2.052189    0.045990    0.588500
C     -0.644569    0.030626    1.102455
C      2.021372   -0.708072    0.808867
C     -1.972572   -0.006289   -0.787211
C     -4.466087    0.096230    0.490086
C     -4.395654    0.043650   -0.896321
C      0.115038    0.588978   -0.075426
O      5.576195   -0.690465   -0.079988
O      1.156861   -1.349013    1.688388
O     -5.809898    0.139187    0.842689
O     -5.713815    0.056543   -1.343635
O     -0.607773   -0.049404   -1.143312
H      6.321961    1.091207   -0.917674
H      7.490355   -0.294093   -0.752890
H      6.200843   -0.351765   -2.019858
H      4.388857    1.070880   -1.624592
H      1.969644    1.650227   -1.635849
H      3.738917   -1.761296    1.485737
H     -3.348575    0.137791    2.297475
H     -3.087635   -0.046821   -2.563590
H     -0.250529   -1.948452    0.342781
H     -0.815267   -1.890816    2.093267
H     -7.530291    0.436090   -0.340880
H     -6.228381    1.752401   -0.330838
H     -0.534838    0.613959    2.016644
H     -0.058853    1.686236   -0.156056
