35

C      3.587951    0.996391    0.462092
C     -3.332148   -0.350899    1.251890
C     -2.745813    1.829319    0.271825
C     -3.608944    0.071065   -1.166376
C      0.573958   -1.032154   -1.193111
C      0.713400   -0.422183    1.070685
C     -0.754755   -0.632328   -1.225146
C     -0.589574   -0.028033    1.045732
C      2.734284   -1.349291    0.092079
C      3.788203   -0.147666   -1.757764
C      3.733784   -0.275168   -0.296985
C      1.342181   -0.945046   -0.071358
C     -1.357889   -0.122953   -0.100774
C     -2.751190    0.336724    0.015379
O      4.094319   -1.157283   -2.385741
H      4.130532    1.792723   -0.100078
H      4.002175    0.895145    1.477120
H      2.519690    1.342424    0.497063
H     -2.696638   -1.199670    1.590057
H     -3.433546    0.356515    2.103551
H     -4.334093   -0.771773    1.040404
H     -3.490843    2.358594   -0.332562
H     -1.734857    2.271965    0.091190
H     -2.967409    2.037949    1.351927
H     -3.544693   -0.970021   -1.547430
H     -3.451064    0.820196   -1.973652
H     -4.676507    0.204546   -0.853690
H      1.051773   -1.431485   -2.089096
H      1.276205   -0.330119    1.994975
H     -1.360064   -0.696557   -2.119563
H     -1.014674    0.359295    1.968223
H      2.961947   -1.622422    1.151082
H      3.010946   -2.247470   -0.525884
H      3.578802    0.759302   -2.297053
H      4.744550   -0.699633    0.010712
