34

C      1.693717   -2.494318    0.272907
C     -3.591436    1.617146    0.358572
C     -3.270167   -0.624939   -0.528834
C     -0.289816   -0.232086   -0.094024
C      0.817990   -0.240194    0.905005
C      2.755965   -0.466470   -0.681378
C     -1.389547    0.618047    0.496827
C      3.091778    0.989455   -0.471929
C      2.018293   -1.036913    0.506513
C     -2.594841    0.733900   -0.388836
O      3.899814    1.181051    0.646774
O     -2.341958    1.268345   -1.625244
H      0.622818   -2.632334    0.468498
H      1.992080   -2.768115   -0.764165
H      2.253269   -3.174456    0.947415
H     -4.423433    1.938897   -0.276628
H     -3.072110    2.562266    0.686739
H     -3.916862    1.121085    1.299720
H     -2.741221   -1.174791   -1.307852
H     -3.169337   -1.165157    0.439849
H     -4.349484   -0.516996   -0.739731
H     -0.013709    0.224549   -1.061503
H     -0.677200   -1.249301   -0.331518
H      0.422278   -0.690645    1.842224
H      1.104319    0.782657    1.137271
H      2.286401   -0.669859   -1.643346
H      3.749886   -1.003528   -0.704919
H     -1.720363    0.131905    1.438894
H     -0.988432    1.632829    0.677035
H      2.204827    1.634536   -0.349222
H      3.701259    1.301334   -1.348452
H      2.728615   -1.006510    1.362901
H      4.796086    1.509554    0.438344
H     -1.589481    1.899056   -1.607908
