36

C     -3.817194    1.652953    0.378451
C     -4.380383    0.382035    0.903390
C     -3.935955   -0.874511    0.275174
C     -2.522602   -1.278065    0.360870
C     -1.556541   -0.308059   -0.241886
C     -0.126562   -0.879045   -0.145104
C      3.786967    0.538353    1.018905
C      0.792112    0.137211   -0.764595
C      2.706890   -0.489951    0.642121
C      4.917497    0.316365    0.005849
C      2.230027   -0.289665   -0.747345
C      4.363028    0.785825   -1.287845
O      5.118021    1.288894   -2.139666
O      2.998587    0.641336   -1.497823
H     -3.371648    1.600320   -0.635199
H     -3.105216    2.177671    1.036865
H     -4.678423    2.408928    0.267759
H     -5.512372    0.420397    0.788556
H     -4.152845    0.328108    2.015326
H     -4.570485   -1.700729    0.752649
H     -4.311383   -0.905483   -0.802109
H     -2.373661   -2.270711   -0.161825
H     -2.214133   -1.481543    1.428735
H     -1.545044    0.626564    0.375140
H     -1.722017   -0.074721   -1.300528
H      0.115837   -1.116133    0.897473
H     -0.066237   -1.835207   -0.721422
H      4.122657    0.360341    2.044710
H      3.336865    1.527560    0.864631
H      0.448337    0.383416   -1.801287
H      0.652177    1.079487   -0.183334
H      3.234339   -1.477752    0.721496
H      1.919530   -0.498079    1.403745
H      5.816510    0.874834    0.312776
H      5.070219   -0.773787   -0.077114
H      2.333102   -1.277157   -1.295148
