24

C     -4.306162   -0.309219   -0.290843
C     -1.917042   -0.900935   -0.742303
C     -2.390234    0.792342    0.849069
C     -0.567235   -0.694083   -0.481662
C     -1.056918    1.003763    1.113286
C      2.160406   -0.355157   -0.030297
C      4.524026    0.424699   -0.535494
C     -2.839746   -0.137471   -0.058165
C     -0.133563    0.230193    0.419551
C      3.526116    0.087056    0.455332
O      1.212350    0.442193    0.684916
O      3.898216    1.404550    0.278784
H     -4.642099   -1.136226    0.380856
H     -4.539508   -0.580916   -1.332496
H     -4.805483    0.613858    0.047388
H     -2.251017   -1.640354   -1.462658
H     -3.098703    1.415565    1.409644
H      0.143389   -1.309145   -1.034362
H     -0.720325    1.744305    1.834838
H      1.992054   -1.423521    0.122389
H      2.073188   -0.062571   -1.092892
H      5.590760    0.197574   -0.337968
H      4.272194    0.550272   -1.613285
H      3.875335   -0.356771    1.416373
