36

C     -4.187788    0.985994   -1.818612
C     -4.623819   -0.032648   -0.828564
C     -3.704434   -0.190308    0.349833
C     -2.307725   -0.606021   -0.051490
C     -1.507947   -0.723174    1.222845
C     -0.078501   -1.135181    0.984211
C      0.682613   -0.169946    0.117503
C      2.088593   -0.708125   -0.033809
C      4.380331   -0.398508   -1.018020
C      2.956420    0.159749   -0.876741
C      4.097205    0.941488   -0.406240
C      4.387143    1.185867    1.011052
O      4.103047    0.363228    1.904104
O      5.000293    2.362746    1.425694
H     -4.526487    2.008355   -1.546098
H     -3.125289    1.021400   -2.038717
H     -4.705746    0.765565   -2.797735
H     -5.613554    0.272325   -0.429240
H     -4.798242   -1.044793   -1.289304
H     -3.676512    0.719797    0.960479
H     -4.111815   -1.006297    0.982675
H     -1.843177    0.083861   -0.759339
H     -2.382432   -1.599039   -0.576311
H     -1.978179   -1.535733    1.819065
H     -1.594981    0.209115    1.783570
H     -0.035168   -2.166005    0.585755
H      0.419798   -1.150522    1.975752
H      0.179984   -0.139057   -0.873602
H      0.698769    0.830069    0.549291
H      1.980590   -1.680985   -0.607198
H      2.504693   -0.976290    0.937360
H      4.723406   -1.158650   -0.296842
H      4.796397   -0.477685   -2.041617
H      2.501073    0.464665   -1.849868
H      4.431041    1.783315   -1.073869
H      4.870400    2.741428    2.375507
