25

C     -3.161895    0.702836    0.548590
C      3.641911    0.340607   -0.185711
C     -0.813083    0.503199   -1.170366
C     -2.258353   -0.503998    0.566539
C      2.127708    0.406188   -0.065489
C      0.122025   -1.238770    0.375547
C     -0.823975   -0.103832    0.208543
C      1.538467   -0.909637    0.165488
O      2.311710   -1.881903    0.193515
H     -2.554781    1.618291    0.330766
H     -3.945077    0.624743   -0.256414
H     -3.645772    0.887298    1.521081
H      3.984323   -0.600034    0.274149
H      3.945105    0.313781   -1.246944
H      4.109195    1.238668    0.269336
H     -0.525487    1.580957   -1.147343
H     -0.209201   -0.078883   -1.909509
H     -1.858779    0.444749   -1.588522
H     -2.232024   -1.006090    1.563375
H     -2.662224   -1.231997   -0.153202
H      1.841881    1.072908    0.787242
H      1.729383    0.889474   -0.973446
H      0.001630   -1.747371    1.370299
H     -0.127162   -2.023157   -0.397810
H     -0.535523    0.701973    0.920287
