30

C      0.305879    1.271692    0.257775
C     -0.594649    0.172812   -0.218558
C      1.712771    0.982968   -0.150005
C     -2.001517    0.538918    0.225524
C      2.240988   -0.305300    0.415318
C     -2.926080   -0.570603   -0.252762
C     -4.292305   -0.214979    0.178526
N     -2.544434   -1.842422    0.282157
O     -4.927249   -0.996711    0.908547
O     -4.839827    0.977600   -0.235860
O      4.396692   -2.115076   -0.099450
O      4.956320    0.470901    0.781298
O      3.994356   -0.034964   -1.608500
P      3.952298   -0.504272   -0.162801
H     -0.062684    2.219137   -0.196976
H      0.208128    1.368268    1.357460
H     -0.290165   -0.801647    0.218179
H     -0.563739    0.086718   -1.310856
H      2.356843    1.847567    0.185232
H      1.841156    0.970751   -1.257264
H     -2.290997    1.465338   -0.285428
H     -2.010820    0.623272    1.325225
H      1.683747   -1.160734    0.017707
H      2.232224   -0.332137    1.510264
H     -2.856083   -0.615126   -1.356462
H     -2.402880   -1.860395    1.299349
H     -1.826771   -2.339044   -0.276469
H     -5.544532    1.447650    0.307677
H      5.391687   -2.149933   -0.199236
H      4.701643    1.399750    0.664099
