43

C      4.786488    2.695425    0.863164
C      5.081112   -2.412197   -0.797406
C      4.866238    1.561169    1.848844
C     -7.510967    1.221602   -0.328732
C      0.801437   -2.121783    0.810725
C      1.181422   -1.295740   -1.383662
C     -0.540879   -2.159536    0.556011
C     -0.173442   -1.337007   -1.631975
C     -6.682171    0.163261   -0.622120
C     -5.611856    2.518237    0.380673
C     -2.689125    0.446181   -0.037666
C      4.077453   -1.293676   -0.613774
C     -6.980951    2.394972    0.170518
C      1.693393   -1.683932   -0.167411
C     -1.045518   -1.769647   -0.663002
C     -5.312306    0.263193   -0.420535
C     -4.795207    1.440733    0.078712
C     -3.198491   -0.733591   -0.536815
C      4.715821   -0.107537    0.044344
Cl    -8.080502    3.713182    0.527879
N     -3.461417    1.506777    0.263365
N     -4.544800   -0.797499   -0.722174
O      5.718170    0.441608   -0.481559
O      4.241842    0.424004    1.232423
O      3.013027   -1.680966    0.177920
O     -2.412211   -1.833803   -0.850880
H      5.721883    2.797915    0.261638
H      4.597653    3.626623    1.462580
H      3.890316    2.550956    0.234286
H      4.556733   -3.208164   -1.374056
H      5.397080   -2.817632    0.175999
H      5.905850   -2.053345   -1.427235
H      5.929064    1.351348    2.085405
H      4.330927    1.772201    2.794177
H     -8.591466    1.147533   -0.485965
H      1.197483   -2.433979    1.784655
H      1.855188   -0.951995   -2.158586
H     -1.203707   -2.513311    1.361835
H     -0.580248   -1.031985   -2.588912
H     -7.106978   -0.753472   -1.013457
H     -5.210336    3.448142    0.774112
H     -1.603920    0.469991    0.101462
H      3.777918   -0.964259   -1.610520
