24

C      0.773160    1.098028    0.430516
C      0.584212   -1.039038   -0.880033
C     -0.698614    1.106405    0.602072
C     -0.893836   -0.926019   -0.866677
C     -1.458749    0.376847   -0.436002
C      2.732730   -0.090500   -0.290466
C      1.321697   -0.259595    0.153848
O     -1.120528    2.456447    0.572539
O     -1.452346   -1.987420   -0.117774
O     -2.754518    0.155515    0.063143
O      3.042191    0.524602   -1.354974
O      3.799651   -0.599428    0.438982
O      1.348426   -0.976110    1.349344
H      1.124029    1.859024   -0.324904
H      1.229335    1.449253    1.401128
H      0.999577   -0.787201   -1.880371
H      0.852563   -2.116750   -0.724288
H     -0.957475    0.701374    1.606577
H     -1.264347   -1.109978   -1.904640
H     -1.603915    1.077671   -1.308926
H     -2.067852    2.526260    0.829187
H     -2.191402   -1.691530    0.449915
H     -2.747843    0.201877    1.051401
H      1.403855   -1.949735    1.140405
