56

C     -4.168684    1.125844   -4.662574
C     -6.255125    0.949051   -3.322113
C      0.909922   -2.333579    3.015512
C     -2.907513    0.909338   -0.890425
C      5.355459    1.522784    1.307376
C      4.028400    0.750437   -0.630566
C      5.245242   -1.270718    1.009866
C     -1.155997   -0.746593    1.969001
C      1.691830    0.731497    0.914926
C     -0.320388   -0.141315    3.000298
C     -1.752813    0.001887    0.929690
C      1.414138   -0.619447    1.378520
C      2.898407    1.469735    1.377713
C     -3.162606   -1.318124   -0.833095
C     -4.957413    0.228190   -3.716499
C      1.059439   -0.798372    2.830691
C     -2.443684   -0.645032    0.065845
C     -3.950177   -1.125859   -1.988512
C      4.165412    0.770251    0.876551
O     -4.438528   -2.240783   -2.509088
O      4.189398   -0.505806    1.402979
O     -4.210783    0.072653   -2.562288
H     -4.059028    2.136736   -4.231396
H     -4.699142    1.135067   -5.632479
H     -3.154589    0.683072   -4.853061
H     -6.000171    1.515941   -2.379239
H     -7.068814    0.225795   -3.161450
H     -6.508367    1.665589   -4.106405
H      0.270613   -2.668368    2.187714
H      0.482558   -2.584735    3.973123
H      1.931035   -2.776713    2.814199
H     -3.906116    0.849626   -0.639377
H     -2.344795    0.603911   -1.709323
H     -2.358753    1.525473   -0.194411
H      5.392048    2.523686    0.804533
H      5.385386    1.660451    2.432723
H      6.319173    1.040866    1.067675
H      3.383262   -0.107822   -0.963869
H      3.468013    1.660381   -0.920364
H      4.987761    0.771389   -1.168770
H      5.101034   -2.278807    1.506140
H      6.248770   -0.959372    1.334116
H      5.153816   -1.495105   -0.077847
H     -1.396073   -1.784998    1.999916
H      0.793027    1.398744    1.132164
H      1.711198    0.753561   -0.222219
H     -0.676638   -0.245855    4.032426
H     -0.215054    0.950618    2.796392
H     -1.496410    1.034068    1.099511
H      2.181794   -1.392935    1.126256
H      0.507335   -0.984697    0.805184
H      2.848248    2.473838    0.833190
H      2.965920    1.715428    2.426221
H     -3.023315   -2.425324   -0.491767
H     -5.211246   -0.746982   -4.141200
H      1.753586   -0.450008    3.557886
