42

C     -3.439618    2.259197    0.158525
C     -4.440697   -0.114413    0.451193
C      4.062401    1.802441    0.462208
C      1.263028   -1.203111    1.537681
C     -1.884932   -1.007711    1.352630
C     -2.124447    0.380555    0.958849
C      3.239844   -0.205479   -0.700854
C      1.634797    1.555451   -0.204459
C      2.248224   -1.066307   -1.344840
C      0.652534    0.777656   -1.045781
C     -0.971435   -1.799824    0.535463
C     -3.293955    0.849323    0.532118
C      2.977744    0.959018   -0.193980
C      0.802261   -0.684223   -0.918597
C      0.426352   -1.414127    0.304123
O      0.989260   -2.779074   -0.067480
H     -4.125826    2.324582   -0.709015
H     -2.468846    2.696818   -0.159678
H     -3.809345    2.819197    1.030137
H     -4.176603   -0.990984   -0.165160
H     -5.289968    0.419949   -0.036516
H     -4.717354   -0.444760    1.464391
H      4.188395    1.442963    1.504420
H      4.994080    1.513587   -0.094059
H      3.826330    2.861585    0.370039
H      2.305993   -1.405517    1.295595
H      1.167392   -0.240020    2.023373
H      0.959260   -2.031162    2.238923
H     -2.921443   -1.492666    1.380942
H     -1.622989   -0.982875    2.444415
H     -1.286490    1.073599    1.052784
H      4.298243   -0.544583   -0.623839
H      1.740511    2.569598   -0.694779
H      1.252268    1.803168    0.808377
H      2.325999   -0.883628   -2.457464
H      2.360678   -2.140595   -1.192238
H     -0.320116    1.228999   -1.005316
H      1.000133    1.043667   -2.124762
H     -1.443941   -1.916925   -0.500959
H     -1.070675   -2.879625    0.917953
H      0.194618   -1.148219   -1.757682
H      0.498333   -3.005526   -0.888270
