29

C     -3.569384    1.255221    0.067232
C     -2.935942   -1.211671   -0.021367
C      3.349980    0.026618    1.020800
C      2.438485   -0.047801   -1.240632
C      1.064525    0.362930   -1.760508
C     -1.252879    0.525620   -0.086667
C      0.914519   -0.152177    0.741217
C     -2.518962    0.210200   -0.017217
C      2.251966   -0.565277    0.168201
C     -0.225287   -0.543303   -0.170242
O      0.207683   -0.708357   -1.491084
H     -3.451417    2.061631   -0.666021
H     -3.551433    1.639665    1.119580
H     -4.578868    0.825777   -0.073777
H     -2.758871   -1.683641    0.974133
H     -4.044046   -1.311570   -0.188670
H     -2.391845   -1.724918   -0.836904
H      4.345935   -0.343748    0.757722
H      3.334683    1.131410    0.918059
H      3.118210   -0.232047    2.092040
H      3.083195    0.867966   -1.267318
H      2.811916   -0.830663   -1.930577
H      1.104054    0.489527   -2.855584
H      0.771375    1.286309   -1.251455
H     -0.916870    1.559375   -0.085599
H      0.941791    0.947788    0.900417
H      0.799851   -0.665316    1.719185
H      2.302071   -1.662837    0.152398
H     -0.644435   -1.506712    0.195485
