56

C      8.065735   -1.679655    0.241993
C      8.063436    0.386509   -1.096957
C     -0.594678    0.548670   -1.992086
C      2.847362    1.083707    1.908554
C     -6.222804   -0.137265   -0.626146
C     -5.746014   -0.049015    1.756488
C     -5.173214    2.205873    0.509707
C      0.131879    0.544716    0.798661
C     -3.559975   -1.620681   -0.928991
C     -1.250458    0.324196    0.312736
C      1.207620    0.107510    0.205210
C     -2.602787   -0.737430   -1.575722
C     -4.223284   -1.301702    0.336368
C      3.570661   -0.178716   -0.029875
C      7.361843   -0.383041   -0.002891
C     -1.308665   -0.377352   -0.964695
C      2.590611    0.328395    0.684798
C      4.949197   -0.012945    0.361273
C     -5.084606   -0.069102    0.368727
O      5.270342    0.608052    1.377558
O     -4.375531    1.115416    0.274097
O      6.007679   -0.548015   -0.390616
H      8.731376   -1.885778   -0.620553
H      8.713384   -1.657903    1.147324
H      7.343154   -2.543782    0.269226
H      8.722713   -0.304268   -1.698124
H      8.671099    1.219899   -0.699307
H      7.359856    0.826520   -1.829779
H      0.023416   -0.039851   -2.680294
H     -0.021654    1.334130   -1.528323
H     -1.409640    1.056183   -2.604296
H      3.372829    0.406841    2.630575
H      1.971887    1.448098    2.430712
H      3.458717    1.976720    1.638284
H     -6.298890   -1.165771   -1.039795
H     -6.104518    0.627821   -1.435698
H     -7.209894    0.077218   -0.165386
H     -5.863066   -1.085655    2.132890
H     -6.701232    0.486622    1.678058
H     -5.050095    0.467712    2.443845
H     -5.640801    2.220577    1.500726
H     -5.993882    2.281616   -0.239513
H     -4.513961    3.114861    0.453072
H      0.265645    1.124868    1.737060
H     -3.117433   -2.655274   -0.817725
H     -4.401233   -1.847820   -1.679908
H     -1.688280    1.374451    0.252299
H     -1.743696   -0.200005    1.178936
H      1.134652   -0.488196   -0.694152
H     -3.055693    0.227875   -1.952814
H     -2.329076   -1.235911   -2.572945
H     -3.660737   -1.361760    1.269381
H     -5.002892   -2.153543    0.480162
H      3.382104   -0.735942   -0.932801
H      7.354138    0.211307    0.941236
H     -0.622646   -1.279982   -0.905872
