26

C     -2.431441    1.851240   -0.101398
C     -1.687050    0.667264    0.506235
C     -0.905715    0.022983   -0.637281
C      2.524837   -0.041127   -0.701547
C     -0.121770   -1.175741   -0.140249
C      1.953473   -0.217820    0.650264
C     -1.062007   -2.191621    0.433606
N      2.796055    1.368273   -0.912866
N      0.790885   -0.718246    0.860509
O      2.705486    0.174121    1.744335
O     -0.952418   -2.502762    1.633354
O     -2.042397   -2.794122   -0.314915
H     -2.718193    2.596528    0.652295
H     -1.686911    2.343489   -0.792824
H     -3.266525    1.528941   -0.746079
H     -1.016458    1.033266    1.285645
H     -2.390955   -0.043411    0.975155
H     -0.202495    0.774474   -1.014077
H     -1.633503   -0.275664   -1.403808
H      1.850897   -0.366500   -1.504002
H      3.473298   -0.610292   -0.821561
H      0.347835   -1.653088   -1.011500
H      3.698046    1.640378   -0.446406
H      1.997772    1.963866   -0.668413
H      2.263931    0.396796    2.628613
H     -2.284678   -3.771226   -0.153086
