28

C     -1.249098   -1.158054    2.091945
C     -3.494998    0.878930   -1.782654
C     -2.869876    1.624391   -0.803662
C     -3.167668   -0.441379   -1.925819
C     -1.928512    1.053901    0.021540
C     -2.227814   -1.019452   -1.105194
C     -0.596045   -0.906025    0.747734
C     -1.603418   -0.273566   -0.126845
C      1.815890   -0.412855    0.404862
C      2.953348    0.496250    0.510124
N      5.311740    0.987932    0.178548
N      0.527583   -0.019919    0.846998
N      4.243619    0.107583    0.069175
O      1.992462   -1.552749   -0.084291
O      2.791932    1.637476    0.996471
H     -0.945877   -2.176528    2.426282
H     -2.355726   -1.156926    1.989878
H     -0.910111   -0.398179    2.820387
H     -4.235502    1.381341   -2.411214
H     -3.122965    2.672585   -0.682488
H     -3.655317   -1.033816   -2.693730
H     -1.446101    1.659307    0.788588
H     -1.997173   -2.073566   -1.253537
H     -0.264914   -1.857938    0.298056
H      6.209384    0.489054   -0.007887
H      5.390848    1.385090    1.148472
H      0.439217    0.946795    1.248108
H      4.395091   -0.839681   -0.338436
