38

C      5.024883    2.580347   -1.639237
C     -5.106500   -1.038047   -2.928212
C      3.842369    1.981896   -2.001866
C      5.455762    2.464938   -0.336032
C     -5.474305   -1.737448   -1.810018
C     -3.928740   -0.329167   -2.924904
C      3.101304    1.276397   -1.068617
C      4.699790    1.750255    0.598394
C     -4.652736   -1.724829   -0.679468
C     -3.121212   -0.328118   -1.787087
C      3.514947    1.149566    0.238780
C     -3.470390   -1.021570   -0.656516
C      0.680755   -0.941373    1.687175
C     -0.699559   -0.426410    1.857502
C      0.708697   -2.406017    1.356219
C     -0.666767    0.942812    2.403241
C      2.695111    0.389660    1.198954
C     -2.651993   -1.046194    0.556823
O     -0.297753   -2.972201    0.880862
O      1.850217   -3.158703    1.571101
O     -1.739227    1.360353    2.957023
O      0.394326    1.804266    2.373806
O      3.052412    0.259546    2.400536
O     -3.023443   -1.700650    1.564708
O      1.510700   -0.208775    0.832267
O     -1.450089   -0.366334    0.662161
H      5.647257    3.143778   -2.320913
H     -5.747735   -1.048363   -3.809510
H      3.516665    2.079969   -3.025011
H      6.377004    2.924791   -0.031155
H     -6.391609   -2.298431   -1.791825
H     -3.662855    0.211127   -3.814479
H      2.185522    0.816905   -1.363391
H      5.031229    1.660578    1.603968
H     -4.983268   -2.287174    0.170443
H     -2.197296    0.226719   -1.781560
H      1.172048   -0.905742    2.705675
H     -1.195520   -1.078355    2.635270
