55

C     -1.167701    3.514820   -1.907317
C     -2.018596    4.101253    0.372544
C     -5.523177    0.148329   -0.615961
C     -5.399468    1.504519   -0.829393
C     -4.355269   -0.551400   -0.308804
C     -4.172449    2.127927   -0.740280
C     -1.765886   -2.336534    1.615118
C     -1.262136   -2.680612   -0.692075
C     -1.547220   -3.674194    1.842430
C     -1.047725   -4.028765   -0.431149
C      1.172684   -0.352907    0.599750
C      0.407411    0.659860    0.254953
C      3.426558   -1.016370   -0.225330
C      5.838052   -1.494035   -0.803563
C     -1.220419    3.092346   -0.431873
C     -1.627076   -1.812637    0.339386
C     -1.187205   -4.545544    0.840658
C      2.641299   -0.205228    0.815144
C      4.881595   -0.788804    0.093422
C     -3.154232    0.082089   -0.225583
C     -3.019315    1.427630   -0.435289
C     -1.017494    0.640036    0.018906
C      5.721603   -1.110734   -2.220267
C     -1.879547   -0.402874    0.060404
F     -0.971128   -5.867008    1.066746
N     -1.714481    1.762778   -0.284846
O      3.065492    1.096294    0.715500
O      5.199939    0.581733    0.047054
O      4.903846   -0.260986   -2.620499
O      6.537849   -1.691151   -3.209311
H     -1.012027    4.600468   -1.919173
H     -2.088575    3.200722   -2.440587
H     -0.271901    3.042960   -2.360119
H     -1.375437    4.706604    1.049671
H     -2.763825    3.619392    1.035044
H     -2.468055    4.844934   -0.330152
H     -6.475090   -0.370638   -0.679151
H     -6.312061    2.045296   -1.068575
H     -4.446499   -1.607487   -0.141767
H     -4.087486    3.180526   -0.909086
H     -2.052188   -1.660561    2.429257
H     -1.145120   -2.314311   -1.689369
H     -1.650882   -4.111130    2.841015
H     -0.764659   -4.707712   -1.225848
H      0.725219   -1.313566    0.734497
H      0.967526    1.608676    0.143488
H      3.106695   -0.603457   -1.197799
H      3.177761   -2.077718   -0.177262
H      6.865362   -1.198506   -0.475955
H      5.757601   -2.606542   -0.714048
H     -0.182130    3.184822   -0.071277
H      2.903375   -0.603808    1.804089
H      5.067570   -1.091784    1.143987
H      2.663150    1.668780    1.424325
H      6.115877    0.644207    0.453216
