33

C     -2.157899    2.600966   -0.217007
C     -0.766083    2.069623   -0.077849
C      1.544985    0.180528   -1.063021
C      1.234618   -0.365208    1.196083
C      2.855405   -0.214091   -1.004572
C      2.564354   -0.779697    1.305026
C     -1.689092   -1.415340    0.984675
C     -1.548143    0.076503    1.102342
C      0.683528    0.120155    0.034830
C      3.357507   -0.696066    0.193575
C     -2.417971   -1.721585   -0.284254
C     -1.323530    0.075777   -1.346791
C     -0.708382    0.563343   -0.082465
N      4.722381   -1.093320    0.204942
N     -2.226274   -1.019997   -1.329453
O     -3.317295   -2.792354   -0.311425
O     -1.046556    0.632666   -2.430954
H     -2.077810    3.605200   -0.723083
H     -2.624653    2.811315    0.768429
H     -2.832687    1.981779   -0.808615
H     -0.354021    2.422703    0.907409
H     -0.092898    2.465806   -0.854957
H      1.209697    0.550843   -2.025404
H      0.674891   -0.454368    2.113925
H      3.501720   -0.150733   -1.892772
H      2.988037   -1.155358    2.205866
H     -0.715442   -1.924563    0.910833
H     -2.258772   -1.808980    1.854026
H     -2.562187    0.539146    1.021451
H     -1.128509    0.347150    2.062772
H      5.458204   -0.380903    0.156979
H      4.956399   -2.088157    0.260987
H     -3.903521   -2.982781   -1.114732
