52

C     -3.949935   -3.394261    0.492668
C     -3.301246   -2.947743   -0.621937
C     -3.903453   -2.724110    1.685444
C     -2.572780   -1.778991   -0.543126
C     -3.180960   -1.569312    1.755192
C     -1.884827    2.569119    0.072419
C     -3.800759    1.216851   -0.055414
C     -2.630549    3.656826   -0.354581
C     -4.564303    2.288793   -0.482867
C      1.747251   -0.428698    0.836895
C      1.337211    0.994478   -1.053658
C      0.349144   -1.033586    0.712743
C     -0.088552    0.430236   -1.148425
C      2.662983   -1.015555   -1.299445
C      3.955999   -1.626036   -0.858969
C      4.961468    0.264398    0.043594
C     -2.508248   -1.082528    0.646964
C     -2.458333    1.328468    0.229671
C     -3.970394    3.525246   -0.634326
C      6.283296    0.995589    0.002421
C     -1.702388    0.168109    0.675463
Cl    -4.937066    4.902181   -1.180873
N      2.182253    0.013813   -0.446949
N     -0.460106   -0.068289    0.079046
O      7.195914    0.571315   -0.716757
O      6.387954    2.123297    0.795065
O      5.028881   -0.812463   -0.793279
H     -4.525296   -4.321569    0.423261
H     -3.317921   -3.454533   -1.579155
H     -4.412950   -3.074028    2.563783
H     -2.062645   -1.423672   -1.421911
H     -3.094383   -0.983424    2.654422
H     -0.816407    2.679377    0.294410
H     -4.301273    0.264793    0.050819
H     -2.163976    4.622292   -0.471999
H     -5.619386    2.219966   -0.711357
H      1.676159    0.444942    1.514791
H      2.405179   -1.200576    1.221562
H      1.352135    1.909128   -0.450514
H      1.741348    1.207240   -2.072948
H      0.356769   -1.964498    0.131057
H     -0.039753   -1.214320    1.738880
H      0.019658   -0.403274   -1.907100
H     -0.789471    1.128147   -1.577666
H      1.910391   -1.858287   -1.302753
H      2.820899   -0.668055   -2.349866
H      4.227076   -2.486170   -1.530881
H      3.845454   -2.136241    0.149696
H      4.205880    1.029257   -0.313108
H      4.757961    0.005801    1.086438
H     -1.504702    0.336549    1.784380
H      7.150798    2.774004    0.621075
