41

C     -2.487440    3.541704   -0.451279
C     -2.733345   -3.854481    0.790711
C     -2.505796   -2.755168    1.614124
C     -2.257935   -3.834195   -0.488647
C     -1.829115   -1.647381    1.190358
C     -1.577027   -2.712844   -0.889301
C      3.844659   -0.022928   -0.724292
C      3.673508    0.739105    1.540432
C      2.452225   -0.185853   -0.794548
C      2.295674    0.576879    1.457510
C     -1.461253    0.664870   -1.112429
C     -2.385185    1.189350   -0.044926
C     -1.335553   -1.616650   -0.107038
C      4.422044    0.433036    0.439133
C      1.662640    0.107163    0.288039
C     -0.586665   -0.465268   -0.610441
C      5.896053    0.635841    0.520773
F      6.236305    0.807828    1.873318
F      6.240318    1.771464   -0.168711
F      6.567360   -0.419392   -0.051047
N     -3.189362    2.289061   -0.623850
O      0.314584   -0.008352    0.361693
H     -2.398238    3.757437    0.623077
H     -3.102127    4.363132   -0.903135
H     -1.482382    3.528163   -0.921503
H     -3.252860   -4.739872    1.134711
H     -2.905355   -2.765027    2.637651
H     -2.436234   -4.683328   -1.155440
H     -1.656420   -0.793292    1.855374
H     -1.204096   -2.695168   -1.948840
H      4.438325   -0.242258   -1.588283
H      4.106157    1.118670    2.429697
H      2.002581   -0.518721   -1.689834
H      1.635824    0.829241    2.312285
H     -2.000436    0.309393   -1.998747
H     -0.810060    1.462441   -1.439572
H     -1.820161    1.674286    0.793581
H     -3.094875    0.486152    0.351273
H      0.045927   -0.741124   -1.497618
H     -3.250428    2.041894   -1.640992
H     -4.071836    2.374190   -0.121196
