40

C     -1.787653    3.934108   -0.449813
C     -3.612592   -3.407467    0.393819
C     -3.789178   -2.390701   -0.532010
C     -2.514187   -3.419442    1.206030
C     -2.860983   -1.390186   -0.638311
C     -1.581280   -2.384367    1.075917
C      3.479921    0.545295    0.892762
C      3.990044   -0.863293   -0.969927
C      2.132191    0.322683    0.665642
C      2.629866   -1.081701   -1.191550
C     -1.239741    0.996459   -0.563246
C     -2.359628    1.658898    0.157661
C     -1.727969   -1.359470    0.166264
C      4.418476   -0.056272    0.063103
C      1.681917   -0.487057   -0.371942
C     -0.754362   -0.289461    0.070373
C      5.863589    0.166805    0.265121
F      6.377581    0.720630   -0.906450
F      6.059076    1.019170    1.333534
F      6.460450   -1.062838    0.518454
N     -2.753637    2.877884   -0.533617
O      0.367281   -0.739106   -0.641557
H     -0.790438    3.617082   -0.723664
H     -1.815190    4.447085    0.542393
H     -2.090407    4.728665   -1.187349
H     -4.357694   -4.219107    0.482514
H     -4.656734   -2.364859   -1.185957
H     -2.334526   -4.166824    1.923694
H     -2.953442   -0.584013   -1.361616
H     -0.693994   -2.377939    1.720723
H      3.790737    1.188293    1.713639
H      4.715947   -1.338152   -1.618926
H      1.419345    0.797974    1.317663
H      2.308918   -1.734295   -2.016819
H     -1.411962    0.845382   -1.624938
H     -0.355334    1.705166   -0.508135
H     -3.191294    0.966423    0.319653
H     -2.005128    1.955146    1.202809
H     -0.399066   -0.043278    1.131214
H     -3.658919    3.266681   -0.137153
