29

C     -3.929026    0.920365    0.680845
C     -2.451281   -1.203584   -0.597360
C      4.754297    0.268820   -0.045185
C     -2.443185    0.735567    0.982114
C      0.537272    0.644777   -0.769355
C      0.031090   -0.824162    1.040098
C      1.911373    0.521596   -0.532506
C      1.394855   -0.940970    1.268350
C     -1.815651    0.130017   -0.265971
C      3.750894   -0.432384    0.772869
C     -0.376355   -0.018542    0.006567
C      2.323575   -0.283898    0.501159
O      4.126682   -1.177768    1.729086
H     -4.404947   -0.043512    0.416498
H     -4.431069    1.345726    1.566429
H     -3.995339    1.646393   -0.155945
H     -2.979858   -1.603523    0.286463
H     -3.122423   -1.104000   -1.478619
H     -1.632116   -1.884522   -0.919625
H      4.888640    1.326852    0.246361
H      5.749690   -0.241097    0.068164
H      4.491761    0.196516   -1.115355
H     -2.049672    1.754578    1.168445
H     -2.279935    0.067680    1.848595
H      0.256377    1.295056   -1.600724
H     -0.666339   -1.360442    1.669893
H      2.622303    1.042046   -1.141669
H      1.692265   -1.582504    2.089751
H     -1.953878    0.804919   -1.119546
