25

C     -2.636237    0.809343    0.256411
C     -2.693571   -1.156518   -1.140003
C      1.738459   -0.325077   -0.859049
C      1.321336   -0.082491    1.514077
C      0.300052   -0.484774   -1.165798
C      0.026811    0.580587    1.002998
C      3.647981    0.001777    0.527178
C     -1.986682   -0.210251   -0.243693
C      2.221029   -0.142618    0.342326
C     -0.579860   -0.436851    0.067122
O      4.444136   -0.045661   -0.460631
H     -2.222933    1.549217    0.910816
H     -3.689760    0.939564    0.000492
H     -2.053959   -1.373772   -2.018031
H     -2.876607   -2.101132   -0.566623
H     -3.672515   -0.787948   -1.450872
H      2.419815   -0.362882   -1.680608
H      1.038599   -1.106184    1.838970
H      1.732463    0.496975    2.350969
H      0.000677    0.348975   -1.852737
H      0.181628   -1.456595   -1.687547
H      0.357269    1.470877    0.431155
H     -0.626273    0.831357    1.863977
H      4.120738    0.155437    1.490264
H     -0.512593   -1.467201    0.528836
