31

C     -2.136289    1.110289   -0.669242
C     -3.875200   -0.357401    0.187369
C     -2.026941    0.259944    1.626877
C      1.983841    1.138323   -0.327253
C      3.467112    1.067417   -0.502310
C      2.612442   -1.107479   -0.420725
C      1.661760   -0.223269    0.321182
C     -0.350608   -1.312827   -0.437703
C     -2.359161   -0.096691    0.214708
N      3.856469   -0.313770   -0.303890
N      0.291847   -0.482325    0.225580
O      0.216335   -2.254991   -1.311881
O     -1.755158   -1.253410   -0.255055
H     -1.215668    1.065158   -1.255194
H     -2.978869    1.291280   -1.367963
H     -2.066258    2.043513   -0.038667
H     -4.094597   -1.057360    1.023142
H     -4.406776    0.590121    0.412442
H     -4.193137   -0.779744   -0.772708
H     -2.885188    0.171744    2.329949
H     -1.698306    1.325455    1.699018
H     -1.208767   -0.336220    2.067016
H      1.627975    1.962874    0.292895
H      1.495380    1.168631   -1.325680
H      3.917551    1.729457    0.293445
H      3.817023    1.417443   -1.496524
H      2.818799   -2.066186    0.103556
H      2.429758   -1.215585   -1.493066
H      2.055619   -0.171753    1.368465
H      4.118072   -0.397195    0.721243
H      0.880942   -2.915443   -0.909028
