35

C     -4.502384    0.702119   -0.697088
C     -2.630390   -0.615393   -1.555286
C     -3.153677   -0.621535    0.828038
C      3.260775    0.104521    0.855419
C      1.988609    0.971822    0.807753
C      1.645509   -0.765318   -0.704669
C      3.025286   -1.010432   -0.131487
C      0.965586   -0.052079    0.473026
C      4.054577   -1.026320   -1.208189
C     -0.947350    1.423475    0.048080
C     -3.066718    0.242169   -0.403747
N     -0.338188    0.354894    0.194741
O      3.811037   -0.899909   -2.416715
O      5.373096   -1.195726   -0.809114
O     -0.333239    2.663011    0.152583
O     -2.307201    1.396903   -0.234438
H     -4.433150    1.418315   -1.563235
H     -5.153434   -0.143789   -0.944454
H     -4.857558    1.292351    0.186667
H     -1.824257   -0.117151   -2.163969
H     -3.451687   -0.809442   -2.283207
H     -2.285140   -1.625500   -1.224921
H     -2.267287   -1.243328    0.989373
H     -3.436028   -0.032181    1.722031
H     -4.005652   -1.329924    0.656660
H      4.149204    0.694426    0.551055
H      3.362003   -0.320487    1.852860
H      2.193172    1.710559    0.024662
H      1.914266    1.393938    1.833008
H      1.127625   -1.696796   -0.946674
H      1.708123   -0.042130   -1.531313
H      3.019649   -2.014036    0.386158
H      0.931304   -0.775234    1.333447
H      6.143757   -0.914443   -1.390506
H      0.319760    2.882652    0.906706
