34

C     -1.442205   -1.564023   -1.931862
C     -1.376289   -2.141744    0.899935
C      3.275879    1.778694    1.031674
C      2.600719    0.831086    1.767483
C      3.099615    1.813150   -0.352015
C      1.755906   -0.075234    1.126079
C      2.259342    0.904556   -0.949808
C     -2.262043    1.621633    0.845809
C     -0.779349   -0.600430   -0.937762
C      1.567272   -0.059864   -0.234027
C     -2.056527    0.195052    1.101933
C      0.695023   -0.984966   -0.942412
N     -1.737598    2.164159   -0.354197
N     -1.402421   -0.770392    0.330497
O     -2.569070   -0.201370    2.218422
O      0.777786   -2.315695   -0.561593
H     -2.537694   -1.546490   -1.849273
H     -1.184861   -1.197684   -2.951687
H     -1.003848   -2.584261   -1.850636
H     -1.366919   -2.909691    0.129115
H     -0.568031   -2.286248    1.608259
H     -2.332782   -2.299467    1.480278
H      3.937419    2.494005    1.502599
H      2.753567    0.824276    2.838410
H      3.647397    2.572745   -0.897632
H      1.261276   -0.788296    1.760020
H      2.127048    0.937150   -2.025977
H     -3.357479    1.901487    0.867813
H     -1.795018    2.173127    1.705109
H     -0.819355    0.383518   -1.391135
H      0.945347   -1.005771   -2.055772
H     -1.437268    3.150692   -0.204367
H     -2.414719    2.164352   -1.161430
H      1.739879   -2.578057   -0.561850
