26

C      0.824920   -1.970697   -0.408383
C      3.612325    1.186650    1.022413
C     -1.707337   -1.131120   -0.119038
C     -1.124705    1.192250   -0.157653
C     -3.007358   -0.776408    0.165748
C     -2.437076    1.501764    0.128096
C      0.643204   -0.497159   -0.588263
C      2.771377    0.336778    0.128015
C     -0.767543   -0.151848   -0.280600
C     -3.393889    0.520961    0.293164
N      1.483966    0.300115    0.244353
O      3.330815   -0.452335   -0.868408
O     -4.710974    0.878843    0.581634
H      1.882715   -2.294925   -0.468619
H      0.421578   -2.274204    0.569642
H      0.266475   -2.492416   -1.221746
H      4.375300    1.755909    0.437759
H      2.950268    1.945564    1.510515
H      4.107995    0.552498    1.778178
H     -1.475915   -2.186421   -0.205315
H     -0.377936    1.953763   -0.286624
H     -3.741900   -1.562996    0.291272
H     -2.713763    2.559994    0.223951
H      0.859798   -0.226766   -1.643844
H      2.892363   -0.515355   -1.795711
H     -4.964702    1.847561    0.669464
