26

C      0.759964   -2.043038   -1.314018
C      3.459772    1.214374    0.310176
C     -1.537493   -0.779283   -0.660212
C     -0.688935    0.261896    1.276766
C     -2.733632   -0.071119   -0.529646
C     -1.845776    0.983554    1.451380
C      0.753561   -1.397199    0.059682
C      2.147709    0.598411   -0.007676
C     -0.497765   -0.621413    0.243256
C     -2.849820    0.787793    0.521951
N      1.922845   -0.619774    0.273611
O      1.181496    1.373612   -0.612671
O     -4.038564    1.493537    0.654276
H      1.764710   -2.435206   -1.558250
H      0.033323   -2.861478   -1.300461
H      0.508577   -1.287422   -2.065181
H      3.252012    2.052868    1.012817
H      3.972196    1.558735   -0.607171
H      4.108581    0.476634    0.806085
H     -1.436027   -1.454322   -1.479437
H      0.125823    0.387212    1.986886
H     -3.526369   -0.228856   -1.267635
H     -2.009860    1.682683    2.260839
H      0.737764   -2.206440    0.849643
H      0.615366    0.995588   -1.362317
H     -4.179459    2.138651    1.408235
