17

C      0.333995   -1.396516    0.790325
C     -1.640529    0.100660   -0.008736
C     -0.584756   -0.889575   -0.291323
C      0.834531   -0.697455   -0.498051
C      1.622544    0.508418   -0.219905
N     -1.273262    1.364884    0.507067
O      1.303277    1.378506    0.612357
O      2.829893    0.764001   -0.901100
H      0.413865   -0.840781    1.739946
H      0.610907   -2.450231    0.870908
H     -2.379479   -0.402397    0.691132
H     -2.252083    0.221993   -0.949179
H     -1.024020   -1.781511   -0.865989
H      1.325823   -1.396384   -1.263328
H     -1.200979    2.043954   -0.308691
H     -2.102267    1.741432    1.059276
H      3.182538    1.731001   -0.964710
