35

C     -4.515585    0.264881    0.063011
C     -2.725513   -0.732644    1.340686
C     -2.610567   -0.601491   -1.152979
C      3.095888   -0.004763    0.748609
C      1.645038    0.124548    1.132816
C      1.711279   -0.169808   -1.183390
C      3.158590   -0.045073   -0.756358
C      1.037310    0.721266   -0.142599
C      4.001315   -1.120326   -1.275879
C     -1.097647    1.591529    0.276428
C     -3.002734    0.126657    0.103907
N     -0.384109    0.613315   -0.166518
O      3.549975   -2.021101   -2.026090
O      5.346294   -1.173357   -0.946749
O     -0.531100    2.762838    0.783212
O     -2.470959    1.403044    0.216108
H     -4.839660    1.108308    0.700843
H     -4.983497   -0.673940    0.464662
H     -4.843187    0.378792   -1.001310
H     -1.688169   -1.068048    1.381210
H     -3.023890   -0.109572    2.218960
H     -3.459497   -1.564772    1.297446
H     -3.414475   -1.331377   -1.381335
H     -1.680511   -1.187662   -1.046131
H     -2.479048    0.075078   -1.998744
H      3.554626   -0.928685    1.193632
H      3.625353    0.910276    1.107691
H      1.458954    0.758726    1.996603
H      1.201317   -0.897398    1.236531
H      1.400425   -1.203825   -1.028789
H      1.557413    0.208923   -2.211270
H      3.518683    0.937652   -1.161235
H      1.432403    1.734134   -0.312500
H      6.038926   -1.625868   -1.562493
H      0.416359    2.739743    1.136668
