38

C     -5.774933    1.437376    0.862901
C     -3.681360    0.355978    1.542531
C     -3.916244    0.916539   -0.739709
C     -2.432566   -0.147108    1.235001
C     -2.670132    0.414898   -1.048426
C      3.599004    0.071246   -0.309553
C      2.367545    0.679703    1.584462
C      4.483285    1.097621   -0.062760
C      3.239415    1.709457    1.847333
C      0.268678   -1.278029    0.784395
C     -4.433687    0.896348    0.536056
C     -1.903344   -0.133052   -0.036696
C      2.501700   -0.173102    0.514402
C      4.306176    1.932049    1.029828
C     -0.586006   -0.684584   -0.256416
C      1.625826   -1.277697    0.172852
C      2.055675   -1.880180   -2.286934
Cl     5.417648    3.248733    1.369231
N      2.750314   -2.961028   -2.173051
N      0.026323   -0.740809   -1.363717
N      1.284364   -1.334625   -1.235579
S      2.130676   -1.088491   -3.909092
H     -6.508128    0.613974    0.706222
H     -5.793809    1.735914    1.914687
H     -6.003943    2.331864    0.244135
H     -4.024846    0.306928    2.568471
H     -4.535954    1.354069   -1.530644
H     -1.848492   -0.575834    2.062617
H     -2.245664    0.419952   -2.037196
H      3.790286   -0.544778   -1.175273
H      1.548521    0.534864    2.241301
H      5.335222    1.283536   -0.706678
H      3.081720    2.354943    2.713145
H      0.155607   -0.855061    1.769346
H     -0.074333   -2.353203    0.872430
H      2.132139   -2.233898    0.467200
H      2.807583   -3.527916   -1.304001
H      1.525735   -1.906599   -4.888555
