19

C      2.679896    0.139021    0.255739
C      2.072671    1.170284   -0.447194
C      1.935346   -0.910359    0.757482
C      0.708564    1.130481   -0.637559
C      0.570805   -0.931653    0.556162
C     -0.057526    0.068618   -0.131856
C     -1.482471    0.118153   -0.382978
C     -2.305129   -0.946858    0.263639
F     -1.993409   -2.213324   -0.089269
F     -2.127077   -0.816147    1.648736
F     -3.655731   -0.755164    0.042418
O     -1.968190    1.396475   -0.116617
H      3.739485    0.134248    0.424625
H      2.673783    1.991098   -0.836685
H      2.361759   -1.732529    1.308833
H      0.248920    1.937856   -1.185500
H     -0.010381   -1.739763    0.942211
H     -1.625793   -0.017272   -1.498705
H     -1.765522    1.976836   -0.873482
