31

C     -1.912791    2.223625   -1.707418
C     -2.856939    2.325092   -0.714888
C     -0.990585    1.184887   -1.708981
C     -2.885327    1.383580    0.287859
C      1.555022   -0.495804    1.133489
C     -0.464838   -2.122200   -0.040912
C      2.783992   -0.082941    1.661592
C     -1.453204   -2.013536    1.058430
C      2.247157    0.125089   -1.048347
C      1.291742   -0.393305   -0.198523
C     -0.048775   -0.855034   -0.697673
C     -1.017750    0.232377   -0.696291
C     -1.964318    0.337877    0.294702
C      3.722818    0.431329    0.795460
C      3.454201    0.533568   -0.548714
C     -1.968740   -0.671946    1.338861
Cl     5.265835    0.956640    1.414218
Cl     4.682300    1.194775   -1.608178
O     -2.424071   -0.364319    2.480577
H     -1.880353    2.944608   -2.487779
H     -3.550359    3.142660   -0.751282
H     -0.240889    1.077516   -2.469450
H     -3.599633    1.428697    1.073212
H      0.867957   -0.889855    1.878795
H     -0.877818   -2.853464   -0.801470
H      0.445736   -2.673071    0.341911
H      2.996586   -0.162391    2.716079
H     -1.003491   -2.382868    2.010550
H     -2.354028   -2.664602    0.874128
H      2.037955    0.204448   -2.093533
H      0.142606   -1.101434   -1.786422
