31

C     -2.945948   -1.629958    0.782523
C     -3.421253   -0.494617    1.408997
C     -1.850032   -1.446043   -0.030485
C     -2.832860    0.738015    1.227958
C      1.694612   -1.787357   -0.556214
C     -0.012640    1.231657   -1.796332
C      2.850676   -2.210682    0.055094
C     -0.332614    2.440419   -0.999396
C      1.950349    0.350271    0.360565
C      1.192448   -0.493146   -0.432884
C     -0.063602   -0.079282   -1.109432
C     -1.240406   -0.227888   -0.231249
C     -1.736548    0.910418    0.411927
C      3.571858   -1.325854    0.838821
C      3.115696   -0.050399    0.985857
C     -1.108401    2.205832    0.208931
Cl     5.047311   -1.883488    1.612865
Cl     4.044623    1.049950    1.981546
O     -1.245900    3.086741    1.070067
H     -3.417402   -2.590715    0.933577
H     -4.284415   -0.609895    2.056097
H     -1.458705   -2.341504   -0.537416
H     -3.225989    1.625499    1.734774
H      1.153891   -2.499555   -1.160911
H      0.989691    1.396454   -2.257258
H     -0.716803    1.180131   -2.674234
H      3.235257   -3.217349   -0.044781
H     -0.966239    3.121738   -1.647084
H      0.585038    3.044795   -0.781731
H      1.645874    1.361033    0.516841
H     -0.217568   -0.855224   -1.927031
