30

C      4.632086   -0.144800   -0.159102
C     -4.554005    0.453209    0.006613
C      3.874953   -1.246767   -0.431385
C      4.010697    1.084782   -0.071058
C     -3.852612    1.467961    0.605491
C     -3.951597   -0.709253   -0.421933
C      2.492576   -1.141195   -0.619408
C      2.642319    1.181950   -0.258248
C     -2.475974    1.296556    0.778184
C     -2.582563   -0.833713   -0.228880
C      0.394780    0.193519   -0.733274
C      1.852635    0.078005   -0.535611
C     -1.825373    0.153030    0.367240
C     -0.362043    0.034798    0.580468
N     -0.094109   -1.289972    1.102574
H      5.714535   -0.202935   -0.008300
H     -5.632472    0.600143   -0.122803
H      4.372723   -2.197446   -0.496905
H      4.618858    1.959001    0.146074
H     -4.295226    2.393791    0.953595
H     -4.491973   -1.511646   -0.892879
H      1.975508   -2.049871   -0.828146
H      2.167225    2.149564   -0.186935
H     -1.887367    2.066688    1.242997
H     -2.087156   -1.753266   -0.564417
H      0.131592    1.218184   -1.103428
H     -0.014835   -0.516412   -1.468614
H     -0.046568    0.798809    1.317217
H     -0.100190   -2.019407    0.376069
H     -0.626423   -1.513306    1.947716
