29

C     -1.469460   -0.816334    1.867685
C      3.646779   -0.935403   -0.067948
C      2.451838   -1.432414   -0.541197
C      3.642580    0.265939    0.590109
C     -3.249782   -0.602480   -1.427147
C     -2.515979    0.389134   -2.045472
C     -2.928226   -1.017009   -0.160090
C      1.277007   -0.754749   -0.366909
C      2.488540    0.983039    0.789484
C     -1.453398    0.965404   -1.384428
C     -1.846714   -0.419777    0.494183
C      1.315139    0.454236    0.302295
C     -1.096447    0.574457   -0.104084
C      0.068632    1.233189    0.518722
O      0.200850    2.576532    0.174812
H     -2.076784   -1.660949    2.248316
H     -1.659416    0.082593    2.515995
H     -0.399885   -1.027650    1.927016
H      4.580109   -1.491161   -0.216074
H      2.478739   -2.373133   -1.052502
H      4.574793    0.697505    0.983167
H     -4.097507   -1.084026   -1.915552
H     -2.791694    0.691983   -3.035914
H     -3.483614   -1.797141    0.361761
H      0.353291   -1.166392   -0.747742
H      2.468210    1.939358    1.310745
H     -0.910489    1.739002   -1.914270
H     -0.041010    1.260513    1.649992
H      0.473897    2.725734   -0.754949
