20

C      3.540260    0.362233    0.673729
C     -3.620475    0.046905   -0.129983
C     -0.779070    0.455423   -1.000517
C     -0.169002   -0.255267    0.214167
C      1.148393    0.356085    0.489308
N      0.019608   -1.632023   -0.170490
O      1.161591    1.578596    0.837945
O      2.343002   -0.333152    0.385087
S     -2.377575   -0.241848   -1.381251
H      4.123890    0.381123   -0.278177
H      3.357395    1.419334    0.955665
H      4.159340   -0.170453    1.408617
H     -4.628399   -0.049488   -0.629577
H     -3.570123    1.052742    0.331027
H     -3.550816   -0.748217    0.634732
H     -0.084362    0.181107   -1.843409
H     -0.771381    1.524149   -0.804835
H     -0.826435   -0.200372    1.083276
H     -0.506400   -1.874776   -1.058468
H      1.030561   -1.852101   -0.345304
