29

C     -0.917064   -2.291567   -0.658797
C     -3.101032    2.260983   -0.719942
C     -2.182334    2.245602   -1.750430
C     -3.144250    1.244338    0.212118
C     -1.292271    1.176451   -1.833185
C     -2.235282    0.195661    0.090102
C      1.980274   -0.034993   -0.902535
C      1.090264   -1.047509    1.008881
C      3.160488    0.231246   -0.243378
C      2.262568   -0.789787    1.683598
C     -0.353652   -0.950212   -1.052673
C     -1.311926    0.149913   -0.919305
C      0.913084   -0.676876   -0.308360
C      3.313613   -0.148564    1.071548
O      4.517661    0.132330    1.716483
H     -1.290684   -2.307757    0.382160
H     -1.659757   -2.651936   -1.368114
H     -0.053830   -3.015642   -0.701009
H     -3.826282    3.068445   -0.597180
H     -2.176908    3.057199   -2.461468
H     -3.866224    1.236925    1.038885
H     -0.594223    1.196824   -2.644014
H     -2.292528   -0.573772    0.823383
H      1.838254    0.258160   -1.946718
H      0.246518   -1.560855    1.496044
H      3.959890    0.742700   -0.779363
H      2.375146   -1.093324    2.722441
H     -0.043671   -1.048903   -2.130818
H      4.684158    0.994918    2.225366
