29

C     -1.742925    2.386523    0.313132
C      3.632733   -1.306200    0.694462
C      3.039718   -0.229691    1.324606
C      3.087019   -1.729434   -0.494642
C     -3.386684   -1.016792    0.510039
C     -2.446049   -1.785880   -0.110972
C     -3.149459    0.327589    0.641169
C      1.936364    0.399353    0.778180
C      1.984863   -1.099025   -1.038023
C     -1.291446   -1.208602   -0.588761
C     -1.992202    0.945891    0.169716
C      1.388918   -0.024867   -0.414295
C     -1.062669    0.167152   -0.447532
C      0.191704    0.673074   -0.989827
O      0.370875    2.025263   -0.920666
H     -2.624349    2.807013    0.885593
H     -1.753318    2.946788   -0.644807
H     -0.869596    2.630672    0.957701
H      4.499285   -1.777641    1.151864
H      3.449601    0.130988    2.271162
H      3.535081   -2.571131   -1.006243
H     -4.315525   -1.404533    0.908693
H     -2.630944   -2.851228   -0.216255
H     -3.861037    1.001089    1.128063
H      1.456248    1.247764    1.259257
H      1.596004   -1.472485   -1.976528
H     -0.587388   -1.862806   -1.068231
H      0.209597    0.399518   -2.086446
H      1.335581    2.251639   -0.990410
