25

C     -3.618727   -0.816547    0.438004
C     -3.377008    0.462235    0.045029
C     -2.609113   -1.757954    0.460359
C     -2.083913    0.830074   -0.343051
C     -1.342399   -1.377653    0.074836
C     -1.052515   -0.071069   -0.336406
C      0.344862    0.212561   -0.730037
C      0.602924    1.652525   -0.907381
C      2.533033   -0.265919    0.156811
C      3.354820   -0.842931    1.241660
F      4.172404   -1.861122    0.794377
F      2.578429   -1.330990    2.263320
F      4.171277    0.164135    1.744362
N      1.260598   -0.318825    0.267701
O      0.014128    2.297910   -1.803748
O      1.514140    2.284466   -0.059778
O      3.136849    0.310831   -0.939634
H     -4.634375   -1.073025    0.734229
H     -4.168989    1.207918    0.025591
H     -2.831479   -2.758740    0.775429
H     -1.895329    1.845091   -0.650884
H     -0.570981   -2.131480    0.101062
H      0.487248   -0.294738   -1.714324
H      1.382697    3.277655    0.165763
H      2.631420    0.355593   -1.803290
