29

C      2.223625    0.820135    1.196586
C      3.192603   -0.554972   -0.515487
C     -3.041431    0.285661    0.314203
C     -1.292150   -1.120201   -0.814107
C      0.193320   -1.063903   -0.971400
C     -0.738672    0.270212    1.114872
C      2.057412    0.228277    0.041346
C     -1.831286   -0.587494    0.465530
C      0.804141    0.297958   -0.740780
C     -0.226134    1.137527   -0.032059
O     -1.241732    1.369687   -0.966770
H      1.471697    1.404657    1.680854
H      3.201067    0.706965    1.699166
H      3.813607   -0.936250    0.321546
H      3.803560    0.153783   -1.110270
H      2.839666   -1.417387   -1.115290
H     -3.911256   -0.108952    0.916488
H     -3.390455    0.364720   -0.731699
H     -2.883619    1.319096    0.696298
H     -1.834008   -0.745665   -1.726033
H     -1.548109   -2.224755   -0.816009
H      0.651685   -1.833747   -0.308899
H      0.428142   -1.349247   -2.017965
H     -1.101482    0.841968    1.963696
H      0.037561   -0.485833    1.424808
H     -2.066821   -1.373458    1.206629
H      1.041356    0.800068   -1.723159
H      0.167853    2.080681    0.344881
H     -0.820141    1.720469   -1.773210
