25

C      3.551350    0.813623    0.250612
C      2.646731    1.329882   -0.656501
C      3.170155   -0.186972    1.147048
C      1.351714    0.820442   -0.644545
C      1.878251   -0.650801    1.112383
C      0.943863   -0.155184    0.214918
C     -0.458275   -0.660747    0.179524
C     -0.565041   -1.582057   -0.970958
C     -2.616978    0.415786    0.234401
C     -3.394375    1.672205    0.104909
F     -4.082679    1.951635    1.292985
F     -4.396617    1.515346   -0.856903
F     -2.561731    2.705199   -0.253621
N     -1.354006    0.440694    0.089808
O     -1.374412   -1.399615   -1.932138
O      0.234323   -2.704734   -1.042232
O     -3.335328   -0.737764    0.512410
H      4.558738    1.206105    0.245314
H      2.916179    2.105219   -1.361600
H      3.914518   -0.570957    1.850599
H      0.668100    1.244791   -1.365956
H      1.566902   -1.415246    1.789119
H     -0.647696   -1.235369    1.102938
H      0.196149   -3.355999   -1.800323
H     -2.809836   -1.565481    0.757811
