22

C     -2.745601   -0.075833    0.064911
C     -2.136520    0.778397    0.873680
C     -2.006951   -1.259578   -0.511764
C     -0.708248    0.537336    1.195958
C     -0.665238   -0.727403   -0.871240
C     -0.040712    0.125428   -0.068445
C      1.285217    0.695690   -0.353457
C      2.198718    0.299822    0.747270
N      1.825311    0.376387   -1.622373
O      1.914359    0.491933    1.956192
O      3.392327   -0.295414    0.429085
H     -3.784736    0.065411   -0.193212
H     -2.610832    1.644948    1.318371
H     -2.553203   -1.649599   -1.383528
H     -1.920672   -1.990865    0.319450
H     -0.698145   -0.330030    1.916543
H     -0.223684    1.413686    1.662278
H     -0.223808   -1.057537   -1.799520
H      1.185973    1.810287   -0.287801
H      2.836953    0.632968   -1.632504
H      1.772958   -0.621354   -1.892522
H      3.906533   -0.864683    1.083227
