22

C      2.587670    0.504622   -0.111460
C      2.053585   -0.026059    0.975466
C      2.047357    0.121887   -1.446071
C      0.933984   -0.984237    0.817541
C      0.549881    0.105983   -1.297301
C      0.019901   -0.421680   -0.218074
C     -1.440036   -0.471136    0.003821
C     -2.236420    0.091325   -1.114374
N     -1.746221    0.261517    1.247266
O     -2.184881   -0.427123   -2.256542
O     -3.049520    1.194528   -0.923357
H      3.404684    1.206216   -0.033521
H      2.449151    0.254609    1.944984
H      2.383161    0.755966   -2.259514
H      2.337769   -0.946356   -1.602287
H      1.375174   -1.909050    0.359582
H      0.420397   -1.224014    1.751101
H     -0.096545    0.520303   -2.054751
H     -1.754760   -1.519849    0.193413
H     -1.738421    1.277760    0.989635
H     -2.728493    0.007302    1.482824
H     -3.587420    1.627486   -1.661905
