27

C     -2.461904    1.586074   -0.270914
C     -1.228301   -0.562729    1.446920
C     -0.835368   -1.316027   -0.871726
C     -0.070797    1.591169   -1.128376
C      1.167265    0.722762   -1.036186
C      1.735081   -1.088990    0.638349
C      3.161301   -0.682536    0.693998
C     -1.057087    1.043628   -0.440589
C      0.895058    0.068076    0.290053
C     -0.562131   -0.221280    0.135578
O      3.462362    0.475463    0.495673
H     -2.639148    2.373212   -1.009171
H     -2.590370    1.997404    0.756015
H     -3.187724    0.781993   -0.399677
H     -2.295910   -0.689745    1.255959
H     -1.009205    0.235039    2.165797
H     -0.728142   -1.495706    1.805425
H     -1.381919   -2.168676   -0.387397
H     -1.534286   -0.962954   -1.684550
H      0.048909   -1.728176   -1.350021
H     -0.173328    2.526670   -1.666294
H      1.219698    0.021346   -1.874045
H      2.005363    1.430971   -0.983733
H      1.685560   -1.882008   -0.148472
H      1.437839   -1.533275    1.604325
H      3.952664   -1.400705    0.909934
H      0.984523    0.878999    1.053122
