45

C     -6.930618    0.525870    0.028165
C      6.682541    0.251886    0.529762
C     -2.956044    1.404916   -0.912117
C     -4.276867    1.144890   -0.611923
C      1.987473   -1.148538    1.876880
C      0.618340   -1.651772    1.572706
C     -0.527347    0.740760   -1.024238
C      3.924701   -0.088775    0.717998
C      2.256492    1.203031   -1.041056
C     -1.196360   -1.763547    0.039194
C     -1.954353    0.479383   -0.707978
C      2.558045   -0.267601    0.823825
C      1.736413    0.385619   -0.063809
C     -2.259079   -0.758751   -0.185625
C      0.285843    0.154855    0.098599
C      3.621034    1.407148   -1.178664
C     -4.563213   -0.108228   -0.086576
C      4.418493    0.738548   -0.273924
C     -3.572004   -1.043412    0.122856
N      0.090888   -1.239155    0.310925
O      4.138704    2.236375   -2.170891
O     -3.839013   -2.310851    0.650780
O     -5.877238   -0.426899    0.235134
O      5.795127    0.902343   -0.360073
H     -6.791597    1.419947    0.667419
H     -6.855614    0.863159   -1.044713
H     -7.914923    0.067379    0.230621
H      6.657457    0.729732    1.549517
H      6.446902   -0.834144    0.629241
H      7.704109    0.414795    0.151351
H     -2.728361    2.382149   -1.322474
H     -5.089644    1.840968   -0.756367
H      1.946063   -0.513689    2.807761
H      2.691389   -1.983786    2.104012
H     -0.121993   -1.331702    2.360984
H      0.617400   -2.768311    1.601951
H     -0.311835    1.808588   -1.081654
H     -0.285982    0.283293   -2.001649
H      4.578974   -0.603299    1.417754
H      1.612943    1.727714   -1.752586
H     -1.495435   -2.433156    0.872330
H     -1.127081   -2.399835   -0.880426
H     -0.029503    0.687211    1.030119
H      5.130935    2.391484   -2.279295
H     -4.796162   -2.516587    0.874973
