35

C     -0.997451    1.594096    0.050190
C     -5.388189   -0.518901    0.401177
C     -4.692386    0.283849    1.280508
C     -4.685329   -1.424878   -0.373932
C      5.575787    0.319112    0.089176
C      5.494560   -0.040040   -1.232374
C     -3.321528    0.187499    1.387331
C     -3.313147   -1.504276   -0.250488
C      4.435207    0.508869    0.832238
C      4.247750   -0.203695   -1.788741
C     -1.109234   -0.800183    0.753480
C     -0.533463    0.168079   -0.236183
C     -2.607208   -0.708339    0.623718
C      3.195551    0.344343    0.272380
C      3.104361   -0.013032   -1.042240
C      1.826827    0.467434    0.778273
C      1.697675   -0.122717   -1.393432
N      0.900952    0.177314   -0.256632
O      1.552684    0.783011    1.952593
O      1.277507   -0.441708   -2.554015
H     -0.364928    2.244244   -0.602305
H     -2.060541    1.730211   -0.167619
H     -0.709002    1.811491    1.084207
H     -6.473775   -0.430470    0.328349
H     -5.245842    1.007933    1.901216
H     -5.236310   -2.065524   -1.075067
H      6.571829    0.444539    0.514056
H      6.387102   -0.191285   -1.824036
H     -2.817804    0.837414    2.090551
H     -2.777176   -2.226059   -0.871504
H      4.481597    0.792292    1.875802
H      4.214482   -0.487047   -2.832561
H     -0.833706   -1.821490    0.470298
H     -0.873387   -0.595355    1.793412
H     -0.923466   -0.106731   -1.234889
