19

C     -1.916149    0.883382    0.619873
C      2.282589   -0.103728    0.697476
C      0.921362   -0.298472    0.752261
C      2.873194    0.399430   -0.432548
C      0.748432    0.518995   -1.466226
C     -1.328069   -0.198917   -0.270628
C      0.128850    0.006579   -0.321513
N     -1.665040   -1.482662    0.302979
N      2.069205    0.689813   -1.471429
H     -1.667615    0.611696    1.676578
H     -3.026560    0.906433    0.570378
H     -1.499081    1.879243    0.353077
H      2.904486   -0.343790    1.541754
H      0.485775   -0.697876    1.660555
H      3.940321    0.572985   -0.530654
H      0.115300    0.763266   -2.325599
H     -1.729980   -0.151477   -1.289305
H     -2.625080   -1.745466   -0.033826
H     -1.011941   -2.209434   -0.033203
