36

C     -4.957999   -2.209356    0.646903
C      2.513385   -2.453047    2.170277
C      3.828968   -2.113508    1.902462
C      1.531103   -1.736959    1.566099
C      4.082364   -1.077250    1.041070
C      0.939053    3.825528   -1.229407
C      0.172005    2.992087   -2.011785
C      1.451144    2.062952    0.324165
C     -3.927246   -1.138685    0.441386
C      1.581948    3.381757   -0.064041
C      1.746842   -0.660935    0.675900
C      0.670772    1.232760   -0.484930
C      3.053412   -0.371815    0.440845
C      0.039049    1.692866   -1.632881
C      0.580231   -0.127954    0.026496
C     -1.666873   -0.021930   -1.930029
C     -1.821235   -0.416333   -0.520197
Cl     2.547413    4.456722    0.900462
Cl     3.543727    0.752417   -0.819094
N     -0.872078    0.885587   -2.441933
N     -0.541911   -0.822926    0.100004
O     -4.046361    0.012547    0.936471
O     -2.438083   -0.665626   -2.854601
O     -2.793562   -1.382225   -0.310029
H     -5.603398   -1.954177    1.510855
H     -5.511131   -2.328442   -0.286031
H     -4.414945   -3.135206    0.914334
H      2.286246   -3.276444    2.850787
H      4.597786   -2.695663    2.397036
H      0.491014   -2.024535    1.794004
H      5.132066   -0.821804    0.840301
H      1.070048    4.846255   -1.487675
H     -0.303901    3.356975   -2.889528
H      1.868390    1.619893    1.205810
H     -2.150799    0.521796    0.018990
H     -2.677445   -0.205321   -3.742493
