50

C      4.984889    0.801344   -1.359734
C     -4.333176    3.436907   -1.751207
C      1.537230   -0.189235    2.064101
C      2.682150    0.194746    2.753924
C     -2.029510   -1.140780   -1.307232
C      2.671317    0.109163    0.027867
C     -2.600316    1.304958   -1.224952
C     -0.152846    1.797583    0.026314
C     -2.876561   -2.383609    0.597359
C      0.564907   -2.940740    0.599499
C      1.505248   -0.240863    0.689070
C     -1.744504    0.270090   -0.962441
C     -1.650588   -2.125885   -0.241928
C     -0.542350    0.532295   -0.344833
C     -0.439258   -1.778667    0.553485
C      3.827776    0.538332    2.095383
C     -1.027756    2.854942   -0.242194
C      3.819945    0.494391    0.719127
C     -2.216145    2.592454   -0.853109
C      0.324826   -0.640656   -0.093785
O     -2.676814   -3.272501    1.618759
O      0.016215   -4.066425    1.169376
O      4.995301    0.928473    2.751786
O     -0.649966    4.130966    0.124862
O      4.986130    0.844102    0.046480
O     -3.088571    3.631088   -1.123088
H      6.000589    0.958132   -1.774903
H      4.313686    1.557769   -1.814866
H      4.630141   -0.213537   -1.676939
H     -4.256278    2.792189   -2.648752
H     -4.744508    4.429471   -2.046625
H     -5.058190    2.943784   -1.058194
H      0.632847   -0.458703    2.599078
H      2.664524    0.221533    3.828934
H     -1.557139   -1.391603   -2.296232
H     -3.136989   -1.171660   -1.527613
H      2.688195    0.081848   -1.056806
H     -3.549180    1.102751   -1.711676
H      0.807342    1.981344    0.515813
H     -3.692027   -2.659308   -0.097302
H     -3.172482   -1.400683    1.045977
H      1.481849   -2.605732    1.123821
H      0.881293   -3.208603   -0.429964
H     -1.430112   -3.097569   -0.772770
H     -0.743230   -1.538517    1.589675
H      0.652236   -1.042098   -1.085516
H     -3.390949   -3.957785    1.579872
H      0.280217   -4.902403    0.712170
H      5.074639    0.983617    3.747629
H     -1.264046    4.913291   -0.057773
