19

C     -2.004099    0.980603    0.119888
C      2.382585    0.155245    0.872361
C      1.045829   -0.009012    1.148760
C      2.800694    0.192117   -0.440519
C      0.629172   -0.088940   -1.194743
C     -1.261779   -0.307523    0.361384
C      0.175502   -0.130484    0.100128
N     -1.866761   -1.335596   -0.446805
N      1.928128    0.070995   -1.436096
H     -3.096582    0.788019    0.234625
H     -1.799631    1.355443   -0.889213
H     -1.726797    1.759160    0.859161
H      3.116979    0.256555    1.657098
H      0.707649   -0.039299    2.170473
H      3.848190    0.320148   -0.712445
H     -0.097313   -0.189402   -1.991388
H     -1.443749   -0.587746    1.428577
H     -2.006479   -0.959118   -1.410171
H     -1.331538   -2.231164   -0.431076
