44

C      5.180649   -1.325101   -0.870392
C     -2.248889   -3.437883   -1.109262
C     -2.243819   -2.046800   -1.128526
C     -3.270152    4.618504   -0.749645
C     -2.427737    4.668305    0.344640
C      2.934988   -0.535046   -1.181964
C      4.116426   -0.021556    0.841637
C      2.122084    0.609881   -0.674254
C      2.804439   -0.020825    1.638216
C     -3.288315   -3.340902    1.055732
C     -2.774747   -4.048863   -0.009629
C     -2.760615   -1.357928   -0.054210
C     -3.171811    2.283798   -0.742184
C     -2.338702    2.338637    0.337291
C     -3.421773    0.887017   -1.066609
C     -1.948513    0.962725    0.695893
C      0.434798    0.464852    1.174761
Cl    -2.794161   -5.807528    0.037207
N     -3.634409    3.444298   -1.281735
N     -1.963528    3.543950    0.887457
N     -3.271557   -1.980839    1.013717
N      3.934658   -0.935776   -0.240675
N      1.770090    0.352799    0.715652
N     -2.715187    0.095175   -0.142478
O     -4.161332    0.491407   -2.031325
O      0.156957    0.239471    2.362411
O     -0.585436    0.827604    0.309381
H      5.066431   -1.373083   -1.978805
H      6.015258   -0.643900   -0.627928
H      5.440894   -2.331581   -0.471838
H     -1.844818   -3.987685   -1.947105
H     -1.838395   -1.556830   -1.980886
H     -3.646773    5.540305   -1.191717
H     -2.165819    5.664518    0.737666
H      2.262185   -1.393685   -1.382775
H      3.413032   -0.220817   -2.139046
H      4.938112   -0.413290    1.491298
H      4.341927    1.017536    0.527091
H      1.170379    0.622931   -1.282347
H      2.606832    1.581716   -0.753750
H      2.658982   -1.078726    1.973943
H      2.924270    0.686590    2.476078
H     -3.696528   -3.831340    1.912345
H     -2.080377    0.747964    1.779214
