41

C     -2.115797   -2.554611   -0.929559
C      2.810937    3.298445   -1.301595
C      5.685851   -0.361294    1.007753
C     -4.107058    0.195818    2.648583
C     -2.217001   -0.464475   -2.172796
C     -3.743583   -0.162849   -0.141284
C      3.117260    0.769278    0.172769
C     -1.415732   -1.255960   -1.161926
C     -3.592891   -0.320096   -1.600551
C      1.889539    1.284840   -0.212138
C      3.229292   -0.419549    0.863506
C     -2.707092   -0.220713    0.673812
C      0.743103    0.585222    0.106609
C      2.062815   -1.087411    1.162647
C      0.797046   -0.612590    0.798463
C     -0.669565    0.832402   -0.141289
C     -1.375834   -0.446318    0.117261
Cl     2.167967   -2.590489    2.033290
O     -4.580683   -0.336893   -2.379264
O     -1.153916    1.924382   -0.500916
O      1.758055    2.479212   -0.907511
O      4.454388   -0.954828    1.259427
O     -2.854377   -0.072461    2.041947
O     -0.488609   -1.093659    0.982242
H     -1.366600   -3.364950   -0.922389
H     -2.642307   -2.612242    0.050307
H     -2.844136   -2.805920   -1.733754
H      2.535207    4.389485   -1.282385
H      3.146439    3.015738   -2.341972
H      3.718294    3.221218   -0.669450
H      6.036731   -0.604870   -0.006088
H      5.576597    0.738241    1.148502
H      6.444497   -0.775250    1.719283
H     -4.813899   -0.608576    2.427691
H     -3.973834    0.414761    3.725374
H     -4.472371    1.145573    2.165982
H     -1.713802    0.523848   -2.281714
H     -2.246517   -0.973852   -3.158749
H     -4.722374    0.004830    0.287009
H      4.018157    1.296180   -0.064569
H     -0.374199   -1.419615   -1.482557
