54

C     -3.958220   -2.391813   -2.403857
C     -4.201103   -3.211881   -0.117237
C     -4.438609   -0.843166   -0.575867
C     -1.158780    3.289011    2.009448
C     -2.918429    2.649740    0.371741
C     -1.234494    4.298296   -0.190682
C      6.632520    0.550000    0.514444
C      2.277730   -1.872166   -1.247785
C      0.924676   -1.924274   -1.595099
C      1.861119   -0.123908    0.280204
C      4.502445   -0.243170    1.281707
C      2.764091   -0.979014   -0.312672
C      4.208346   -0.975937    0.007103
C      0.026934   -1.053110   -0.985970
C      0.512194   -0.169291   -0.060034
C     -2.212387   -1.959332   -0.689639
C     -0.538964    1.981024   -0.003616
C     -3.645088   -2.064446   -0.959410
C     -1.471746    2.988200    0.550897
N      5.941363   -0.252736    1.495360
O      4.694661   -2.289191    0.177492
O     -1.692600   -2.715073    0.168380
O      0.184763    2.252263   -1.017417
O     -1.321119   -1.077340   -1.305087
O     -0.393597    0.693370    0.537589
H     -4.856672   -3.040318   -2.415590
H     -3.138774   -2.944219   -2.887062
H     -4.249978   -1.478953   -2.981239
H     -5.218739   -3.490751   -0.417111
H     -3.523133   -4.088333   -0.336589
H     -4.125155   -2.935808    0.966666
H     -4.080380   -0.532077    0.443120
H     -5.502938   -1.187089   -0.429322
H     -4.350292   -0.007930   -1.272750
H     -0.228406    3.852503    2.138694
H     -1.212124    2.362739    2.635576
H     -1.998329    3.937721    2.368628
H     -3.074971    1.611611    0.040240
H     -3.518696    2.776394    1.317317
H     -3.436934    3.316362   -0.372073
H     -2.178626    4.871689   -0.311232
H     -0.820212    4.141848   -1.195279
H     -0.529087    4.963261    0.359868
H      6.203644    1.567096    0.418606
H      7.686629    0.650995    0.849238
H      6.650117    0.035562   -0.463617
H      2.936562   -2.560393   -1.740723
H      0.549618   -2.630493   -2.332890
H      2.176727    0.596866    1.018207
H      4.193075    0.811625    1.272034
H      4.035382   -0.800397    2.113384
H      4.742078   -0.561814   -0.864267
H      6.318665   -1.205475    1.494279
H      5.205239   -2.588275   -0.611503
