32

C     -3.933609    0.627865   -0.837953
C     -3.222996    1.422556    0.010372
C     -3.374865   -0.548678   -1.276826
C      3.265399    0.480276    0.005228
C      2.314433    1.653472   -0.027282
C     -1.961262    1.046360    0.419478
C     -2.093175   -0.919215   -0.854169
C      2.357451   -0.713166   -0.009814
C      1.225299    1.176697   -0.930286
C     -1.367880   -0.124452    0.001744
C      1.037255   -0.266354   -0.598372
C      0.107736   -1.919075    0.863991
C     -0.031066   -0.512466    0.437341
O     -0.105454   -2.832641    0.043661
O      0.468782   -2.252718    2.152308
O      0.289185    0.309295    1.547937
H     -4.942201    0.897868   -1.183805
H     -3.653715    2.350509    0.361541
H     -3.958509   -1.162353   -1.949653
H      3.915399    0.427703   -0.894707
H      3.865774    0.507601    0.941721
H      1.974923    1.838786    1.007988
H      2.880351    2.512943   -0.440090
H     -1.393592    1.698686    1.107873
H     -1.749060   -1.858261   -1.258483
H      2.238335   -1.098121    1.039988
H      2.798687   -1.559299   -0.578367
H      1.625710    1.222996   -1.981582
H      0.315701    1.781534   -0.923262
H      0.833725   -0.878177   -1.482462
H      0.474889   -3.222468    2.487044
H     -0.201652   -0.087702    2.308924
