41

C     -3.466577    1.398176    1.134591
C      3.300273    2.950128   -0.494293
C      5.344483   -1.377918    0.273305
C     -1.346439   -0.752864   -3.193670
C     -3.616828   -1.015338    1.457073
C     -3.269350   -0.870073   -1.019831
C      3.055299    0.203610    0.190719
C     -2.660237    0.159515    1.486900
C     -4.217694   -1.014723    0.080569
C      1.939265    1.014467    0.140973
C      2.931186   -1.131654    0.524397
C     -2.028718   -0.441702   -0.845363
C      0.720177    0.476883    0.425340
C      1.698273   -1.658482    0.807981
C      0.573783   -0.856655    0.761470
C     -0.614660    1.061784    0.457421
C     -1.555310   -0.087043    0.511639
Cl     1.616753   -3.366217    1.224826
O     -5.430341   -1.127325   -0.138846
O     -0.862384    2.273993    0.441026
O      2.075054    2.354199   -0.195269
O      4.069474   -1.915665    0.564897
O     -1.126787   -0.303920   -1.890455
O     -0.761305   -1.151642    1.002994
H     -3.242775    2.188642    1.885311
H     -4.551758    1.202235    1.096869
H     -3.159629    1.717550    0.110916
H      3.642874    2.673334   -1.524844
H      4.052769    2.701746    0.269532
H      3.151539    4.053139   -0.500155
H      6.107803   -2.157409    0.283047
H      5.330777   -0.924939   -0.742605
H      5.550525   -0.551439    1.001485
H     -1.508374   -1.865324   -3.186375
H     -2.103508   -0.207140   -3.757367
H     -0.369976   -0.622371   -3.746870
H     -4.426979   -0.860891    2.209137
H     -3.086418   -1.959340    1.653115
H     -3.545192   -1.111166   -2.042973
H      3.999930    0.662053   -0.039601
H     -2.209001    0.239785    2.495551
