24

C      0.917611    1.863230    0.016308
C     -1.907234   -1.309441    0.102412
C     -0.586927    2.033991   -0.096998
C     -2.202115    0.203925    0.097741
C      2.566582    0.024752   -0.194936
C      1.188305    0.579858   -0.218492
C     -0.368116   -1.400262    0.034304
C     -0.082332   -0.055393   -0.482002
N     -0.942788    0.736295    0.432856
O      2.703797   -0.981661    0.767850
O      0.061177   -1.537624    1.342378
H      1.590995    2.672352    0.247436
H     -2.303523   -1.799403    0.989533
H     -2.264404   -1.710254   -0.859754
H     -0.946471    2.876059    0.484028
H     -0.779929    2.087661   -1.183598
H     -2.603307    0.532449   -0.863409
H     -2.921249    0.368434    0.945514
H      2.812345   -0.403874   -1.194999
H      3.325746    0.785819    0.017719
H     -0.044978   -2.242412   -0.577420
H     -0.490040    0.110132   -1.499071
H      3.684612   -1.129670    0.871591
H     -0.407756   -2.304961    1.773793
