44

C      5.600138   -0.170742   -1.268451
C     -4.321192    2.061050   -1.937355
C     -3.934134    0.917462   -1.290337
C     -2.245387   -4.431302    2.521543
C     -1.045294   -3.883887    2.915781
C      4.076429    0.960719    0.197034
C      3.323842   -0.108884   -1.843985
C      2.762999    1.693491    0.049421
C      1.896829   -0.160091   -1.332624
C     -3.163535    3.278706   -0.266438
C     -3.924386    3.279683   -1.410280
C     -3.173004    0.930621   -0.146825
C     -2.834721   -2.437063    1.377315
C     -1.644193   -1.893554    1.767566
C     -3.563845   -1.457503    0.599808
C     -1.557696   -0.527521    1.225137
C      0.585983    0.557104    0.623526
Cl    -4.414405    4.739211   -2.229435
N     -3.099820   -3.713832    1.775802
N     -0.772331   -2.632958    2.531946
N     -2.794985    2.117987    0.353754
N      4.241156   -0.090630   -0.749012
N      1.732246    0.712330   -0.189584
N     -2.769223   -0.289842    0.531743
O     -4.716241   -1.622834    0.072602
O      0.465712    1.328137    1.622053
O     -0.402634   -0.365257    0.410444
H      5.579210    0.217672   -2.323278
H      5.897885   -1.232447   -1.217902
H      6.277633    0.440840   -0.632572
H     -4.920607    1.992175   -2.834465
H     -4.232906   -0.039894   -1.684703
H     -2.533186   -5.437180    2.794059
H     -0.396545   -4.492533    3.508834
H      4.110285    0.487840    1.222175
H      4.945594    1.647740    0.131888
H      3.483279   -1.086719   -2.379340
H      3.495933    0.677390   -2.584892
H      2.574298    2.317642    0.945716
H      2.887929    2.341042   -0.867761
H      1.697829   -1.191083   -0.990102
H      1.210371    0.102749   -2.159449
H     -2.861624    4.241156    0.132313
H     -1.523683    0.223008    2.076277
