35

C      3.448838    0.973837    0.923265
C      4.813923   -0.039035   -0.985843
C     -1.156832    1.915160    0.005300
C     -1.731180    3.111560    0.366653
C     -1.844780   -2.936013   -0.572550
C     -3.015405   -3.627211   -0.339384
C     -3.960175   -0.340231    0.467153
C      1.090030   -0.681168    0.109913
C     -1.908969    0.739688    0.037485
C     -2.084683   -1.592415   -0.285896
C     -3.404314   -1.546005    0.109729
C     -3.228808    0.822730    0.439061
C      2.355145   -0.657615   -0.694831
C     -3.056516    3.096070    0.753996
C     -1.328447   -0.449835   -0.324579
C      3.453302    0.279138   -0.407887
O     -3.600281    4.180364    1.088328
O     -3.922578   -2.771168    0.065130
O     -0.028957   -0.487060   -0.712801
O     -3.721984    1.987625    0.771470
O      2.509550    0.615993   -1.372936
H      2.500953    1.487791    1.118620
H      3.586261    0.176570    1.710201
H      4.292415    1.686989    1.035308
H      4.974151   -1.124100   -1.096054
H      4.936444    0.463598   -1.973050
H      5.613557    0.406967   -0.335414
H     -0.110678    1.875797   -0.308747
H     -1.176695    4.019698    0.349604
H     -0.885491   -3.302738   -0.913697
H     -3.144964   -4.709703   -0.475366
H     -4.989848   -0.290904    0.777953
H      0.993750   -1.726431    0.527006
H      1.123536   -0.011278    0.987833
H      2.609730   -1.546669   -1.298419
