33

C      3.235838    1.750436   -0.061019
C     -2.674805    2.174817   -0.384101
C     -1.714289    1.449932   -1.077667
C     -3.110107    1.632640    0.805474
C     -0.196066   -1.926929   -1.070922
C      1.271960   -1.398091    0.890355
C     -1.212466   -1.493076    1.137721
C      1.177634    0.082529   -1.176315
C      2.723620    0.560079    0.664975
C     -0.000577   -2.012432    0.418682
C     -0.198953   -0.437055   -1.424611
C     -1.220719    0.248651   -0.600928
C     -2.607913    0.436462    1.264317
N      1.705577   -0.264581    0.112895
N     -1.674126   -0.243477    0.565150
O      3.246278    0.319941    1.807297
O     -3.044918   -0.020903    2.371164
H      2.614179    2.655400    0.149973
H      3.317445    1.564678   -1.164895
H      4.262554    2.003476    0.269191
H     -3.039402    3.112366   -0.786683
H     -1.363068    1.863787   -2.013736
H     -3.866361    2.185107    1.369952
H     -1.187542   -2.375903   -1.296136
H      0.597409   -2.450810   -1.608958
H      1.194566   -1.074275    1.946893
H      2.099235   -2.162950    0.810057
H     -2.024652   -2.250867    1.058282
H     -0.969181   -1.299922    2.203372
H      1.841807   -0.332204   -1.985407
H      1.178754    1.186854   -1.356607
H      0.058248   -3.114465    0.660265
H     -0.419958   -0.369217   -2.498028
