27

C      4.077714    0.053819    0.198862
C     -0.953913    0.563275    1.512703
C     -1.772740   -1.349201    0.204372
C     -1.522243    1.585654    0.553867
C     -2.536946   -0.278319   -0.547399
C     -0.427591    0.617478   -1.292825
C      2.767403   -0.509014   -0.269275
C     -0.533933   -0.675938    0.776845
C      0.344517   -0.330450   -0.425190
N     -1.745355    0.924662   -0.720492
O      2.696757   -1.591372   -0.906842
O      1.582765    0.163288   -0.005015
H      4.316688    0.997617   -0.308313
H      4.837205   -0.730430    0.023216
H      3.977595    0.233087    1.287447
H     -1.712598    0.276902    2.261263
H     -0.082169    1.002050    2.057881
H     -2.365300   -1.861232    0.963703
H     -1.379932   -2.073586   -0.567020
H     -0.865105    2.442989    0.388893
H     -2.505845    1.997275    0.919458
H     -3.409518   -0.012199    0.064176
H     -2.834532   -0.616420   -1.557043
H      0.122369    1.587701   -1.301850
H     -0.535708    0.252025   -2.324599
H     -0.005316   -1.363672    1.451344
H      0.465733   -1.305990   -0.979939
