28

C     -2.404837   -1.165493    1.211189
C     -1.920768    1.214336    1.542579
C      3.670412   -0.648669   -0.516703
C      1.618745    0.760918   -1.076570
C      0.672110    0.818597    0.100979
C     -1.310393   -0.114680    1.277586
C      2.280099   -0.566122   -1.097454
C     -0.416982   -0.198814    0.069982
C     -1.288900   -0.058551   -1.149948
O      1.775284   -1.585907   -1.550238
O     -2.508756    0.167071   -1.013317
O     -0.795334   -0.169187   -2.428364
H     -2.156167   -1.844328    0.369487
H     -3.353625   -0.640500    1.003984
H     -2.467028   -1.694908    2.181819
H     -2.343178    1.149013    2.597197
H     -1.204541    2.033936    1.504722
H     -2.841265    1.411339    0.917272
H      4.298656    0.029487   -1.153521
H      3.646862   -0.223071    0.496118
H      4.100645   -1.647364   -0.600653
H      2.405664    1.537838   -0.899043
H      1.132623    1.041124   -2.017165
H      1.226433    0.715624    1.052679
H      0.192986    1.840671    0.095413
H     -0.656878   -0.358889    2.166549
H     -0.002914   -1.241147    0.074391
H     -1.348950   -0.562326   -3.158969
