33

C     -4.056237    0.519660    0.328039
C      2.957522    2.362434    0.347719
C      1.683347    2.170587   -0.145312
C      3.709367    1.257285    0.704454
C     -0.153094   -0.614630   -1.564833
C     -0.978115   -1.794188    0.406720
C      1.483305   -1.570245   -0.022187
C     -1.083246    0.658633    0.382276
C     -3.208112   -0.670311    0.354761
C      0.132142   -1.733368   -0.617938
C     -0.150189    0.680677   -0.789244
C      1.227972    0.874155   -0.255189
C      3.181843   -0.001228    0.564026
N     -1.789556   -0.591111    0.380536
N      1.933233   -0.196530    0.081279
O     -3.758321   -1.801776    0.354818
O      3.896544   -0.999979    0.900344
H     -3.682476    1.379565    0.888039
H     -5.083407    0.305368    0.736603
H     -4.145922    0.851050   -0.747295
H      3.349848    3.351415    0.449301
H      1.056715    3.028980   -0.439226
H      4.707156    1.451122    1.088182
H      0.683501   -0.552329   -2.292389
H     -1.105800   -0.758115   -2.127748
H     -0.473361   -1.789183    1.416551
H     -1.566670   -2.716785    0.359277
H      1.595882   -2.067903    0.953589
H      2.229623   -2.077932   -0.700995
H     -0.541582    0.721613    1.369516
H     -1.728436    1.542955    0.325904
H      0.091236   -2.704869   -1.183763
H     -0.414714    1.484981   -1.505815
