49

C      2.163044   -2.502820   -0.386476
C      3.705525   -1.650394    1.303689
C      2.488761    2.369740   -0.164998
C      5.199985    1.293644    1.419491
C     -2.135319    0.527515   -1.731119
C     -5.609279   -0.571283    0.219681
C     -3.467996    0.692545   -2.358432
C     -5.365724   -0.274330   -1.263785
C     -1.133453    0.393113    0.601805
C      3.173136   -1.395786   -0.064700
C      3.390069    1.126081    0.014031
C     -2.221472    0.530613   -0.408146
C     -4.194420   -0.433197    0.764064
C     -3.647262    0.701455   -0.041315
C      1.295863    0.098882    0.551359
C      2.523948   -0.045560   -0.248584
N     -4.384991    0.787207   -1.262301
O     -4.192650   -0.173827    2.132189
O      1.290157    0.092571    1.808825
O      2.158215    0.007171   -1.613419
O      3.811478    1.156721    1.334805
O      0.084586    0.249336   -0.096156
H      2.619999   -3.484876   -0.184526
H      1.964445   -2.430467   -1.460456
H      1.237073   -2.368218    0.213126
H      3.366798   -2.679016    1.623597
H      4.829451   -1.758148    1.290938
H      3.344851   -0.983223    2.094157
H      1.792362    2.378280    0.703345
H      3.165285    3.246435   -0.106194
H      1.939620    2.310553   -1.124863
H      5.652795    0.435398    0.897893
H      5.505333    2.270334    0.964984
H      5.546069    1.243824    2.468498
H     -1.190958    0.416028   -2.268385
H     -6.262958    0.251732    0.602994
H     -6.027178   -1.567354    0.364793
H     -3.450001    1.644824   -2.922401
H     -3.710674   -0.106441   -3.075982
H     -4.877022   -1.189831   -1.687618
H     -6.288909   -0.019434   -1.792193
H     -1.330480   -0.443380    1.290764
H     -1.096778    1.339128    1.214114
H      3.998650   -1.480729   -0.793881
H      4.221102    1.172672   -0.719358
H     -3.687122   -1.403853    0.520110
H     -3.817466    1.657674    0.519093
H     -3.689069   -0.924941    2.563980
H      1.312579   -0.506371   -1.707039
