44

C      4.639987   -0.581748    0.265560
C      5.801242   -0.900504   -1.965298
C      1.545563    0.137486    2.504393
C      0.375031    1.457443    0.805453
C     -5.434406    1.115584   -0.164598
C     -6.181170    1.292346   -1.309285
C      3.448755   -0.459165   -1.833890
C     -3.441968    0.315341    0.910394
C     -1.175304   -0.641225    1.863733
C     -2.535175   -0.536666   -1.538989
C      4.559862   -0.635295   -1.201161
C     -4.189392    0.493022   -0.230962
C     -2.199357   -0.305971    0.844592
C     -3.764187    0.078030   -1.472588
C     -1.763134   -0.723706   -0.381390
C      0.016559   -1.009972    1.032967
C     -5.674281    0.843920   -2.510602
C      2.210922   -0.195925   -1.101273
C      1.002007    0.120327    1.052667
O     -6.344933    0.994426   -3.588267
O      1.118634   -0.023251   -1.733018
O     -0.505159   -1.317374   -0.236799
O     -4.501905    0.259822   -2.560210
O      2.136908   -0.118485    0.265165
H      4.008289   -1.366827    0.748303
H      4.335749    0.387488    0.710919
H      5.680541   -0.806099    0.622447
H      6.468937   -0.022524   -2.022583
H      5.599478   -1.352882   -2.963616
H      6.364321   -1.686983   -1.397426
H      1.568799   -0.889891    2.901092
H      0.925536    0.793027    3.131553
H      2.577881    0.543457    2.510051
H     -0.145045    1.845534    1.705097
H      1.189716    2.190523    0.591113
H     -0.373072    1.435023   -0.014461
H     -5.756538    1.436504    0.815309
H     -7.153435    1.779726   -1.250273
H      3.446755   -0.509972   -2.931492
H     -3.774253    0.640320    1.884838
H     -1.506711   -1.496527    2.507389
H     -0.998272    0.200080    2.557084
H     -2.162239   -0.878467   -2.494469
H      0.558463   -1.899968    1.463704
