49

C     -4.532550   -1.659575   -0.234580
C     -2.968936   -1.517951    1.632684
C     -2.109403    1.702514   -1.428071
C     -3.773407    1.700867    1.403531
C      1.700859    1.133590   -0.536173
C      4.801333   -0.553206   -1.282617
C      2.933641    1.803789   -1.022283
C      5.144526    0.901326   -0.940365
C      1.112442   -0.663134    1.084508
C     -3.075349   -1.665434    0.159629
C     -2.786122    0.757764   -0.458282
C      2.025812    0.226372    0.355963
C      4.158745   -1.016525   -0.000395
C      3.508231    0.210896    0.547639
C     -0.840814   -0.784349   -0.412542
C     -2.297595   -0.643393   -0.641946
N      4.000630    1.349494   -0.164020
O      5.172038   -1.406581    0.869924
O     -0.054575   -1.144522   -1.355974
O     -2.541067   -0.972263   -1.990718
O     -2.598373    1.253767    0.830782
O     -0.240602   -0.545649    0.805658
H     -4.899720   -2.684378   -0.329949
H     -4.644932   -1.060394   -1.164597
H     -5.113221   -1.180783    0.568638
H     -2.610939   -2.471751    2.070684
H     -2.243982   -0.746087    1.978283
H     -3.975186   -1.355249    2.123812
H     -2.859888    2.130984   -2.115979
H     -1.637509    2.542036   -0.888528
H     -1.380478    1.174017   -2.078882
H     -4.240017    2.521984    0.816884
H     -3.508604    2.158143    2.387854
H     -4.523835    0.913119    1.568006
H      0.695059    1.408297   -0.903791
H      4.101586   -0.548084   -2.119359
H      5.732990   -1.115947   -1.516956
H      3.178531    1.522421   -2.071981
H      2.842008    2.902189   -0.951664
H      6.076214    0.894650   -0.360356
H      5.251446    1.459821   -1.880534
H      1.241711   -0.411084    2.180992
H      1.468668   -1.732322    1.027950
H     -2.673977   -2.680561   -0.129863
H     -3.879048    0.855072   -0.649893
H      3.440869   -1.842716   -0.175829
H      3.711182    0.315143    1.655069
H      5.479912   -0.655637    1.419430
H     -1.768306   -0.780681   -2.550586
