31

C     -2.291497    2.066749    0.099764
C     -1.894606   -1.470935    1.436809
C     -2.435358    0.896276    1.026950
C      4.602818    0.770742   -0.476860
C      3.565823    1.641598   -0.234874
C      4.328195   -0.574299   -0.541208
C      2.271685    1.152910   -0.061302
C      3.049270   -1.043681   -0.368574
C      1.976270   -0.191150   -0.122143
C      0.631435   -0.719033    0.056581
C     -2.408905   -0.689190   -0.787335
C     -1.716286   -0.344526    0.474251
N     -0.351519    0.044776    0.280925
O      0.406455   -2.084598   -0.017647
O     -1.885603   -0.652874   -1.923863
O     -3.733204   -1.080609   -0.704186
H     -1.499592    1.953009   -0.641915
H     -2.056976    2.997479    0.683421
H     -3.238268    2.276772   -0.450380
H     -2.576133   -1.167410    2.281763
H     -2.405751   -2.323827    0.951392
H     -0.917845   -1.760064    1.880333
H     -3.506540    0.697348    1.177281
H     -2.010398    1.174508    2.013490
H      5.600457    1.176806   -0.608279
H      3.782704    2.705597   -0.183913
H      5.139008   -1.253973   -0.730325
H      1.470119    1.850104    0.127708
H      2.811686   -2.093352   -0.414953
H     -0.455373   -2.468888   -0.436448
H     -4.252071   -1.486264   -1.465983
