34

C      2.935999   -1.954141   -1.875524
C     -2.341651   -2.691084    1.158048
C      2.467094   -2.136894   -0.600104
C      2.714931   -0.741238   -2.493172
C     -1.900081   -1.798785    2.139032
C     -2.220066   -2.336741   -0.169425
C      1.799449   -1.151538    0.047127
C      2.023370    0.268575   -1.812587
C     -1.357538   -0.595592    1.773128
C     -1.676927   -1.131615   -0.544736
C      0.839724    1.089266    0.204055
C      1.561474    0.064652   -0.533804
C     -1.237951   -0.245585    0.445541
C     -0.656262    1.047278    0.009859
C     -0.896035    3.461001    0.674736
N     -0.558578    3.872607   -0.489418
N     -1.223127    2.085663    0.843841
O     -0.957679    4.284718    1.770571
H      3.480796   -2.755611   -2.406062
H     -2.763646   -3.630155    1.489894
H      2.642377   -3.097322   -0.111575
H      3.092204   -0.618262   -3.496763
H     -1.985411   -2.055388    3.187069
H     -2.575779   -3.058189   -0.920855
H      1.441644   -1.323847    1.051176
H      1.886248    1.189333   -2.353751
H     -0.998481    0.134550    2.503727
H     -1.608434   -0.911601   -1.592601
H      1.202772    2.086558   -0.104645
H      1.018914    1.013314    1.297721
H     -0.928779    1.262269   -1.059485
H     -0.515695    3.249962   -1.300804
H     -1.887193    1.840170    1.591509
H     -0.817684    5.283672    1.678275
