38

C     -2.989789   -1.515035   -0.450838
C     -4.318535   -0.199547    1.103470
C      1.858874    2.266256    0.640792
C      2.789268    3.285279    0.668142
C      1.084194   -2.508229   -0.221135
C      2.056429   -3.399437   -0.610658
C      3.960519   -0.475596   -0.375534
C     -0.916385    0.574728   -0.475703
C      2.230884    0.988758    0.291561
C      1.716828   -1.288676   -0.089998
C      3.059033   -1.502155   -0.410404
C      3.565829    0.790668   -0.024072
C     -2.289474    0.783844    0.064213
C      4.085802    2.984854    0.338497
C      1.302322   -0.035253    0.262769
C     -2.905095   -0.470792    0.635298
O     -2.232780    1.798060    1.014882
O      4.928178    3.931948    0.368489
O     -2.200732   -0.973921    1.709220
O      3.184621   -2.767248   -0.706507
O     -0.027075    0.200780    0.585357
O      4.451713    1.765000    0.002836
H     -2.007048   -1.765058   -0.867165
H     -3.639917   -1.080412   -1.253018
H     -3.500624   -2.432920   -0.052159
H     -4.316476    0.029252    2.196523
H     -4.897183   -1.159088    1.005712
H     -4.808716    0.582195    0.508802
H      0.839153    2.449923    0.888858
H      2.484968    4.272543    0.941472
H      0.038472   -2.717991   -0.051821
H      1.865210   -4.438927   -0.793684
H      5.000241   -0.656079   -0.626969
H     -0.540820    1.539752   -0.850579
H     -0.857841   -0.140419   -1.313449
H     -2.950305    1.110035   -0.773536
H     -3.135707    2.090290    1.254829
H     -1.968037   -1.917377    1.617552
