29

C      2.059672    0.906400    0.751241
C      4.168361   -0.964510    0.284216
C     -0.941111    1.396629   -0.581301
C     -2.226873    1.714565   -0.150175
C      0.827312   -0.267668   -1.098072
C     -1.412379   -0.879069   -0.276348
C     -4.920457   -0.609426    0.699759
C      1.859885   -0.356097   -0.003726
C     -0.512113    0.089700   -0.651391
C     -3.106662    0.705695    0.220382
C     -2.689238   -0.591026    0.153585
N      3.114700   -0.709581   -0.652165
O     -4.429228    0.716008    0.683509
O     -3.758283   -1.389106    0.577297
H      3.146711    0.961178    1.048840
H      1.856081    1.830920    0.192885
H      1.516167    0.868903    1.730274
H      4.792880   -1.785971   -0.115101
H      3.774497   -1.174129    1.294915
H      4.831535   -0.054690    0.359010
H     -0.310683    2.231090   -0.853455
H     -2.574835    2.735901   -0.090708
H      0.862559   -1.256838   -1.637548
H      1.238079    0.461630   -1.849976
H     -1.116457   -1.915452   -0.317994
H     -5.432068   -0.762488    1.677191
H     -5.613011   -0.714111   -0.153841
H      1.645039   -1.170371    0.722219
H      3.349919   -0.018086   -1.392652
