17

C     -0.608685   -1.025316    0.708579
C     -1.331997    0.315370    0.847723
C     -0.370066    0.120588   -1.309634
C      0.435244   -0.749168   -0.351178
C     -0.962927    1.094763   -0.359289
C      1.536273    0.011807    0.278133
O     -1.099797    2.261169   -0.557981
O      1.481916    0.309408    1.493203
O      2.663138    0.426999   -0.429824
H     -1.299827   -1.800637    0.283159
H     -0.189551   -1.376420    1.653270
H     -2.419222    0.193714    0.871487
H     -1.019231    0.832632    1.784447
H      0.236829    0.575965   -2.089803
H     -1.201372   -0.506802   -1.688993
H      0.787301   -1.673667   -0.845879
H      3.361974    0.989595    0.034841
