25

C     -3.650029   -0.341798   -0.451519
C      1.086064   -1.068834    0.087816
C      1.570331    1.173433   -0.526096
C      2.424397   -1.220290    0.440470
C      2.889257    1.029292   -0.180515
C     -1.636497    0.484578    0.450000
C      0.657061    0.142989   -0.400729
C      3.321704   -0.184423    0.309426
C     -0.764303    0.304361   -0.777253
N     -3.002010    0.784776    0.143469
O      4.653168   -0.349507    0.664235
O     -1.249455   -0.743317   -1.545518
H     -4.668717   -0.458575    0.018845
H     -3.140540   -1.303479   -0.325019
H     -3.843641   -0.198618   -1.536993
H      0.422673   -1.911407    0.208578
H      1.225461    2.133088   -0.912853
H      2.720961   -2.187737    0.822554
H      3.583127    1.853646   -0.289105
H     -1.596665   -0.409639    1.095418
H     -1.211217    1.324164    1.058169
H     -0.828238    1.259752   -1.375222
H     -3.079705    1.653261   -0.432765
H      4.986960   -0.157076    1.594074
H     -0.870147   -1.608641   -1.308580
