44

C     -1.093604    1.357166    1.681079
C     -2.142307    0.671936    0.885203
C      4.855980    1.122039    0.175334
C      4.349434    2.378257   -0.133786
C     -3.283255   -1.588657   -0.385595
C      4.046641   -0.002338    0.190974
C      3.002454    2.509025   -0.433516
C      1.495988   -2.188718    0.014919
C     -3.066035   -0.307707   -1.131204
C     -2.077827   -2.425761   -0.160303
C      0.179612   -2.407111    0.713851
C     -1.500280    1.570550   -1.380895
C      2.717564    0.162190   -0.110544
C      1.682715   -0.747634   -0.176453
C      2.186796    1.395720   -0.420978
C     -0.184922    2.173304   -1.041488
C      0.586685   -0.010557   -0.522665
C     -0.717189   -0.633257   -0.691767
C     -1.839091    0.398786   -0.536110
N     -0.924638   -1.682726    0.240394
N      0.854300    1.281510   -0.677840
O      0.036724    3.404893   -1.063206
H     -1.480046    1.524248    2.730704
H     -0.781591    2.337306    1.333992
H     -0.209071    0.691880    1.835800
H     -3.100830    1.222282    1.012063
H     -2.338980   -0.325995    1.379439
H      5.910219    0.995223    0.413903
H      5.022404    3.232068   -0.133587
H     -3.993771   -2.200554   -1.017711
H     -3.845196   -1.431937    0.567370
H      4.424769   -0.986523    0.429259
H      2.607682    3.503415   -0.676970
H      1.415106   -2.728177   -0.973520
H      2.285779   -2.680812    0.605221
H     -2.782629   -0.552520   -2.181294
H     -3.967415    0.301573   -1.064551
H     -2.316293   -3.136115    0.679939
H     -1.823145   -3.070879   -1.026035
H      0.002988   -3.507238    0.805321
H      0.360514   -2.087528    1.784684
H     -1.385423    1.186154   -2.438061
H     -2.302563    2.331088   -1.447249
H     -0.868253   -1.047870   -1.727936
