17

C     -0.467828   -0.142110   -1.169147
C     -1.570399    0.669799   -0.549912
C     -0.105967    0.024644    1.190020
C      0.339052   -0.744836   -0.060947
C     -1.519469    0.278828    0.867150
C      1.788046   -0.599074   -0.236795
O     -2.447115    0.184252    1.617406
O      2.564775   -1.578512   -0.314225
O      2.321770    0.676000   -0.321007
H     -0.945176   -0.970508   -1.731194
H      0.133250    0.491503   -1.856678
H     -2.550988    0.471025   -1.028468
H     -1.288401    1.738509   -0.627709
H      0.429328    1.005909    1.210267
H      0.053540   -0.558007    2.104855
H      0.070110   -1.810684    0.099806
H      3.195472    0.863262   -0.784548
