42

C     -3.916012    1.484483    0.174322
C     -2.792035    0.931153   -2.013599
C     -4.702581   -0.347492   -1.200249
C      0.371114   -3.101226    1.809216
C      1.110789   -1.978325    2.507651
C      4.488780    2.391554   -1.436113
C      5.024804    0.976863   -1.579619
C     -0.851568   -2.417794    1.231377
C      0.703308   -0.712927    1.804456
C      2.997415    2.216202   -1.336381
C      3.836774    0.095735   -1.395783
C      1.760566   -0.118268    0.977409
C     -1.384363   -0.085605    0.486680
C     -3.434499    0.402974   -0.762586
N     -0.524132   -0.996128    1.148859
N      2.729172    0.877166   -0.971605
O      2.164877    3.107210   -1.543587
O      3.903876   -1.154850   -1.611168
O      2.944849    0.017431    1.471316
O     -1.075586    1.111367    0.427005
O     -2.577605   -0.478031   -0.109169
O      1.637834    0.334451   -0.321393
H     -3.983102    1.060785    1.182207
H     -4.922632    1.845359   -0.133426
H     -3.241209    2.352011    0.237878
H     -2.669903    0.049990   -2.702425
H     -3.410353    1.679754   -2.539697
H     -1.762078    1.304887   -1.829006
H     -5.143432    0.299846   -1.995193
H     -4.482705   -1.325265   -1.637403
H     -5.441922   -0.367614   -0.374242
H      0.971639   -3.527214    1.006258
H      0.112262   -3.884222    2.535149
H      0.889690   -1.949522    3.583456
H      2.199247   -2.101178    2.360077
H      4.886449    2.858511   -0.500998
H      4.736151    2.969973   -2.341611
H      5.777795    0.737834   -0.798660
H      5.421181    0.789373   -2.587882
H     -1.698561   -2.546335    1.937730
H     -1.133128   -2.837669    0.257827
H      0.478835    0.034755    2.607392
