25

C     -0.915327   -0.218393    2.159899
C      2.913931    1.028290    0.791219
C      1.514984    0.968459    0.757119
C     -1.075058   -0.520449   -1.534369
C     -2.511060   -0.893122   -1.187393
C      3.610188    0.521242   -0.285015
C      1.572962   -0.071976   -1.365339
C      0.827706    0.423445   -0.308973
C     -0.623055    0.345516   -0.369523
C     -2.576384   -0.621470    0.283052
N      2.913675   -0.001675   -1.306399
N     -1.313680   -0.151943    0.773827
O     -3.616387   -0.794437    0.959543
H      0.082403   -0.687848    2.312395
H     -1.601881   -0.890521    2.751347
H     -1.024890    0.767637    2.655443
H      3.454043    1.454294    1.624886
H      1.014671    1.374889    1.600337
H     -0.545408   -1.472515   -1.601692
H     -0.999460    0.077925   -2.459068
H     -2.756423   -1.924466   -1.443587
H     -3.159892   -0.149270   -1.720026
H      4.703447    0.554622   -0.285477
H      1.098442   -0.519957   -2.255894
H     -0.987549    1.401724   -0.546311
