21

C     -2.270979    0.711269   -0.246810
C     -0.755640   -1.732716   -0.023446
C     -0.866413    0.689433    0.316176
C     -0.048557   -0.430240   -0.331631
C      1.303294   -0.478748    0.332387
C      2.095976    0.742595    0.104807
O      1.061742   -0.623840    1.717251
O      2.410242    1.038990   -1.072915
O      2.482214    1.537020    1.148074
H     -2.996310    0.234371    0.451482
H     -2.245542    0.209996   -1.234796
H     -2.592509    1.776141   -0.438110
H     -1.847641   -1.551292    0.058841
H     -0.390723   -2.094094    0.945575
H     -0.527763   -2.523148   -0.783477
H     -0.932581    0.546966    1.412257
H     -0.406853    1.675309    0.137346
H      0.031787   -0.242592   -1.412434
H      1.850934   -1.379342   -0.027404
H      1.927739   -0.625041    2.163350
H      2.717582    2.518963    1.025342
