36

C     -2.517489    2.504581   -0.561939
C     -2.457328   -2.831075    0.510757
C     -1.602780    1.505821   -1.115617
C      2.416826   -0.300215   -0.979061
C      3.689375    0.022258   -0.496690
C     -1.552690   -0.733561    1.478419
C      0.206001    1.012878    1.761182
C     -0.344914   -1.740462   -0.360020
C     -1.470065   -1.719916    0.597793
C     -1.121151    0.662087    1.168682
C     -0.973997    0.675209   -0.328556
C      1.285876    0.002180   -0.282728
C      1.351709    0.631575    0.912585
C      3.713168    0.663381    0.725439
C     -0.022770   -0.368925   -0.854179
N     -0.057410   -0.276159   -2.291759
N      2.583722    0.948576    1.388764
O      4.944935    1.012726    1.263404
H     -3.514368    2.037763   -0.445791
H     -2.631373    3.320693   -1.305520
H     -2.158900    2.987307    0.366395
H     -2.791355   -2.857130   -0.565821
H     -2.016530   -3.819418    0.712861
H     -3.363100   -2.655585    1.103269
H     -1.434004    1.439194   -2.175441
H      2.420322   -0.807663   -1.948743
H      4.574314   -0.222677   -1.057443
H     -1.968118   -1.015267    2.464523
H      0.310567    0.545596    2.762342
H      0.236989    2.116968    1.889044
H      0.516235   -2.229973    0.179304
H     -0.545885   -2.420175   -1.225690
H     -1.914169    1.325854    1.521132
H      0.536327    0.449929   -2.693153
H     -0.019382   -1.197487   -2.766099
H      5.691416    1.331111    0.648353
