21

C     -2.147521    1.107800   -0.351282
C     -1.006990   -1.488522   -0.060821
C     -0.630958    0.927461   -0.391738
C     -0.308852   -0.255393    0.475140
C      1.152460   -0.573958    0.545439
C      1.998907    0.493637    1.040183
O      1.564024   -0.997127   -0.705467
O      1.873130    1.080146    2.145534
O      3.050757    0.930084    0.246621
H     -2.557423    0.710781    0.614428
H     -2.631928    0.629640   -1.234199
H     -2.402448    2.180683   -0.388684
H     -2.098364   -1.378349   -0.119978
H     -0.538078   -1.691774   -1.066254
H     -0.744335   -2.319811    0.629059
H     -0.340190    0.799062   -1.443583
H     -0.209165    1.863107    0.028838
H     -0.689510   -0.033762    1.492479
H      1.248212   -1.443980    1.256721
H      1.575594   -1.993198   -0.791034
H      3.842678    1.453473    0.593848
