32

C     -5.230831   -0.449506    0.856292
C      5.080897   -0.845283    0.680351
C     -5.154108   -0.953139   -0.426591
C     -4.095765    0.139178    1.373623
C      3.926471   -1.175274    1.330758
C      5.120426    0.208150   -0.225546
C     -3.988461   -0.875910   -1.174096
C     -2.937009    0.215434    0.629276
C      2.785687   -0.457280    1.088193
C      3.956370    0.914862   -0.451075
C     -1.585243   -0.191397   -1.441361
C     -2.850958   -0.285636   -0.654860
C      2.776684    0.609186    0.186823
C      1.575369    1.405676   -0.104042
C      0.658449    0.716093   -1.040501
O      0.951054    1.699604    1.108967
O      1.046617    0.378100   -2.171105
O     -0.626778    0.453515   -0.646491
H     -6.160723   -0.531123    1.404088
H      5.972589   -1.420877    0.882133
H     -6.057676   -1.424215   -0.844405
H     -4.159483    0.532435    2.378384
H      3.902862   -1.985819    2.025605
H      6.031509    0.473563   -0.743067
H     -3.950331   -1.273395   -2.168598
H     -2.043724    0.685293    1.052358
H      1.873328   -0.712595    1.597563
H      3.962663    1.740409   -1.153073
H     -1.801046    0.334043   -2.385723
H     -1.191264   -1.217374   -1.661909
H      1.876968    2.350414   -0.576558
H      0.335456    0.942867    1.309496
