37

C      4.954585   -0.934661   -0.049969
C      4.718566    0.314680   -0.634085
C      3.944613   -1.581843    0.595471
C     -2.778915   -1.612232    0.235058
C     -1.921051   -1.494570    1.472424
C      3.464710    0.879998   -0.550800
C      2.695781   -0.979495    0.657598
C     -2.157847   -0.746183   -0.874672
C     -1.901672   -0.056204    1.980552
C      1.112397    0.927705    0.140972
C     -2.032364    1.735949   -1.325883
C      2.421949    0.231690    0.105371
C     -2.124314    0.643375   -0.298146
C     -1.204331    0.749586    0.857159
N      0.082167    0.156329    0.743020
O     -3.160293    1.681934   -2.182588
H      5.939928   -1.351532   -0.129817
H      5.492952    0.857317   -1.153071
H      4.107041   -2.531785    1.044891
H     -2.879667   -2.650608   -0.071057
H     -3.762693   -1.149017    0.443157
H     -2.343998   -2.170642    2.247767
H     -0.894255   -1.791062    1.168231
H      3.312096    1.862308   -1.019946
H      1.906135   -1.495745    1.168002
H     -1.147584   -1.137055   -1.133888
H     -2.850938   -0.784500   -1.734510
H     -1.267933   -0.021090    2.884304
H     -2.929475    0.282760    2.118524
H      0.864500    1.185552   -0.922005
H      1.293280    1.902348    0.675731
H     -1.177561    1.564957   -2.004846
H     -2.020816    2.735318   -0.891655
H     -3.171619    0.776956    0.145252
H     -1.149325    1.814706    1.187151
H      0.405671   -0.090783    1.714861
H     -3.839720    2.275538   -1.783043
