32

C     -4.961660   -1.183141   -0.229761
C      5.048918    0.123203   -1.405763
C     -3.809320   -1.671085    0.346911
C     -5.034410    0.174278   -0.463901
C      3.838036    0.508651   -1.935789
C      5.033071   -0.505488   -0.179419
C     -2.758768   -0.837667    0.682119
C     -3.970971    1.009023   -0.123324
C      2.626742    0.280382   -1.271414
C      3.844409   -0.729946    0.473393
C     -1.714216    1.421824    0.797640
C     -2.821636    0.516776    0.452608
C      2.620584   -0.349142   -0.045269
C      1.416872   -0.646522    0.751201
C      0.178530   -0.045541    0.273567
O      1.695548   -0.279477    2.060345
O     -0.318566   -0.220553   -0.865720
O     -0.520901    0.790445    1.134095
H     -5.796964   -1.818670   -0.500336
H      5.978150    0.308336   -1.934920
H     -3.706793   -2.722409    0.548450
H     -5.917555    0.611119   -0.915177
H      3.856753    0.999592   -2.894587
H      6.000120   -0.804657    0.227050
H     -1.863600   -1.256065    1.138940
H     -4.039936    2.057953   -0.309823
H      1.697425    0.584791   -1.693594
H      3.875857   -1.230203    1.441202
H     -1.596659    2.190460   -0.000485
H     -2.050243    2.004629    1.702244
H      1.282675   -1.762079    0.710521
H      1.888506    0.708796    2.028995
