26

C      4.626862   -0.204157    0.379958
C     -4.096415    0.097906    0.113195
C     -3.568120    0.112494   -1.152808
C     -3.285312   -0.183256    1.195547
C     -2.225591   -0.157589   -1.308111
C     -1.934082   -0.452538    1.013817
C      0.041635   -0.731731   -0.393800
C     -1.383723   -0.441509   -0.263543
C      0.926754    0.485484   -0.314240
C      2.324452    0.019637   -0.462780
N      0.828327    1.152787    0.965551
O      2.636061   -0.590651   -1.508988
O      3.288943    0.229934    0.498475
H      5.161123    0.128603    1.296787
H      4.723848   -1.306683    0.346206
H      5.143186    0.198210   -0.502604
H     -5.137293    0.297718    0.329296
H     -4.229878    0.334992   -1.966825
H     -3.676357   -0.201577    2.207310
H     -1.819584   -0.142261   -2.321923
H     -1.337662   -0.667366    1.890642
H      0.355322   -1.454549    0.360331
H      0.220760   -1.193117   -1.392122
H      0.728650    1.208715   -1.128822
H      1.716320    1.733792    1.051851
H     -0.028224    1.726711    1.067601
