18

C      0.067229    1.559805    0.357425
C      0.756239    0.378719   -0.241326
C     -1.028334    1.812744   -0.634906
C     -0.316332   -0.257222   -1.083597
C      1.376858   -0.515066    0.723445
C     -1.287711   -1.035067   -0.332999
O     -1.871488    2.747919   -0.539190
O      1.307632   -0.265025    1.945781
O      2.050045   -1.648619    0.318764
O     -2.479370   -0.646787   -0.281730
O     -0.994955   -2.213513    0.355899
O     -0.957428    0.867210   -1.649053
H     -0.354938    1.323009    1.361586
H      0.704091    2.463182    0.406740
H      1.523670    0.782029   -0.964182
H      0.122724   -0.918419   -1.870220
H      2.825745   -2.054846    0.861210
H     -1.443676   -2.380051    1.266354
