26

C      2.553379    0.328894    1.353941
C      1.477668   -0.423199    0.937703
C     -2.879269    1.597127    0.963003
C     -2.068984    1.214268   -0.026251
C      2.847884    1.078704   -0.876285
C     -1.334741   -0.904839   -1.036209
C     -2.892524   -0.547397    0.905217
C      3.258278    1.097281    0.432451
C      1.053288   -0.444858   -0.393133
C      1.761132    0.319171   -1.285222
C      0.025722   -1.381983   -0.792521
Cl     4.615586    2.038233    0.998585
Cl     1.294472    0.409655   -2.985226
N     -3.387975    0.509397    1.541079
N     -2.062981   -0.164136   -0.083663
O     -0.101863   -2.405454    0.216038
H      2.878310    0.307750    2.381950
H      0.988363   -1.018429    1.711004
H     -3.097873    2.629268    1.269180
H     -1.485789    1.822853   -0.712971
H      3.383354    1.696106   -1.610269
H     -1.974343   -1.838478   -1.279900
H     -1.446343   -0.352004   -2.039595
H     -3.128029   -1.590811    1.146503
H      0.334848   -1.980784   -1.715460
H     -0.611571   -1.996335    0.980053
