23

C     -1.367164   -1.686366   -0.462518
C      2.951098    0.879647   -0.768305
C      2.081831    1.706337   -0.087527
C      2.504832   -0.389018   -1.076209
C      0.821578    1.268401    0.264033
C      1.240373   -0.832481   -0.725052
C      0.370048   -0.002722   -0.042645
C     -1.997452    0.605946    0.047627
C     -0.985190   -0.439965    0.348508
N     -1.062263   -0.816075    1.732869
O     -2.144060    1.110384   -1.085655
O     -2.832307    1.061252    1.056957
H     -1.184925   -1.534529   -1.536370
H     -0.749553   -2.522351   -0.032331
H     -2.422037   -1.953201   -0.296141
H      3.945488    1.220215   -1.047631
H      2.421300    2.695828    0.156187
H      3.188806   -1.035677   -1.610395
H      0.139220    1.908586    0.795019
H      0.928092   -1.842881   -0.988125
H     -0.296690   -0.479050    2.321133
H     -2.017200   -0.702960    2.126741
H     -3.533825    1.780679    0.909833
