26

C     -3.453799    1.250266    0.572303
C     -3.157919    0.164986    1.362735
C     -2.701499    1.535937   -0.532026
C     -2.094069   -0.603341    0.999930
C     -1.627722    0.746653   -0.884110
C      1.265879    0.483803    0.745678
C      2.268395   -1.299651   -0.416465
C      2.497124    0.978054    1.102999
C      3.527994   -0.826894   -0.072770
C     -1.321003   -0.336349   -0.107709
C      1.114781   -0.658864   -0.017444
C      3.640797    0.326326    0.696475
C     -0.194754   -1.219366   -0.420642
Cl     5.204117    0.965108    1.157646
O     -0.125720   -1.560373   -1.769018
H     -4.312869    1.854713    0.881607
H     -3.763109   -0.057687    2.243815
H     -2.981133    2.400953   -1.114754
H     -1.863536   -1.470295    1.637631
H     -1.040448    0.998453   -1.775627
H      0.358918    0.977578    1.052722
H      2.187394   -2.196020   -1.014228
H      2.551305    1.862263    1.692042
H      4.438501   -1.323643   -0.381710
H     -0.297161   -2.197086    0.132844
H     -0.120464   -0.795525   -2.370309
