41

C     -2.876359    0.409978   -1.119612
C      3.466728   -2.599157   -0.137650
C      1.440936    3.950505   -0.001415
C      3.198490   -2.037322   -1.356341
C      2.641200   -2.332238    0.934821
C      0.616858    3.626060   -1.057303
C      1.839119    2.965766    0.879868
C     -2.966632   -1.669751    0.631208
C      2.085939   -1.211557   -1.449228
C      1.544225   -1.513151    0.827652
C      0.158933    2.322772   -1.279611
C      1.388246    1.693196    0.657627
C     -1.502390   -1.780572    0.197168
C     -3.125406   -0.213412    1.092521
C      1.249565   -0.934800   -0.384113
C      0.556152    1.342298   -0.401704
C     -1.049039   -0.361154    0.291184
C      0.100624   -0.035392   -0.605195
N     -2.213387    0.426256    0.120876
O     -0.244812   -0.197299   -1.966757
H     -2.572283   -0.309705   -1.862684
H     -3.996103    0.299803   -1.004149
H     -2.762349    1.431247   -1.583924
H      4.339343   -3.251473   -0.051305
H      1.783498    4.965493    0.151922
H      3.812918   -2.214529   -2.224734
H      2.902371   -2.804142    1.873368
H      0.311545    4.403462   -1.739822
H      2.490072    3.199403    1.721758
H     -3.626052   -1.860229   -0.225949
H     -3.215018   -2.373448    1.429703
H      1.915522   -0.785477   -2.451249
H      0.925998   -1.317936    1.665172
H     -0.483497    2.183082   -2.133090
H      1.692131    0.929619    1.333733
H     -1.021967   -2.453727    0.921755
H     -1.418394   -2.115417   -0.854462
H     -2.791206   -0.075874    2.117770
H     -4.167960    0.107012    0.892513
H     -0.707770   -0.183299    1.330747
H      0.280213    0.375110   -2.542268
