18

C     -1.221741    0.151239   -0.947728
C     -0.882021   -1.117815    1.117304
C     -0.674025    0.210605    0.470155
C      0.771562    0.646566    0.448556
C      1.641335   -0.242705   -0.305328
O      0.838884    1.927229   -0.089121
O      1.734895   -1.450439    0.007871
O      2.383242    0.210389   -1.377973
H     -1.964073   -0.687646   -1.034707
H     -1.776883    1.078961   -1.190117
H     -0.392470    0.036828   -1.689998
H     -1.919386   -1.157611    1.563799
H     -0.875139   -1.954399    0.366185
H     -0.195427   -1.305275    1.956837
H     -1.290838    0.957987    1.007919
H      1.081948    0.753901    1.528865
H      0.053151    2.426984    0.227496
H      2.686987   -0.484799   -2.060012
