30

C      4.529123    0.128465   -0.094256
C     -4.559632   -0.132245   -0.096097
C      3.895960    1.157456   -0.746842
C      3.781597   -0.879593    0.455305
C     -3.955620   -1.242632   -0.650429
C     -3.801988    0.764479    0.623768
C      2.532136    1.217775   -0.872161
C      2.399399   -0.847655    0.345642
C     -2.600333   -1.423661   -0.466132
C     -2.434765    0.594524    0.817518
C      1.782818    0.187798   -0.309717
C     -1.853146   -0.521568    0.254750
C      0.325523    0.263388   -0.449282
C     -0.377211   -0.706834    0.463059
O     -0.154232    1.542976   -0.164135
O     -0.149555   -0.439108    1.801989
H      5.623515    0.123914   -0.019714
H     -5.625712   -0.007286   -0.251888
H      4.517502    1.936191   -1.168493
H      4.294404   -1.678216    0.963187
H     -4.535057   -1.948254   -1.213187
H     -4.264286    1.629738    1.057567
H      2.096203    2.043917   -1.391384
H      1.826946   -1.639982    0.779189
H     -2.105578   -2.282213   -0.888693
H     -1.882815    1.330819    1.393483
H      0.027558    0.035391   -1.495108
H     -0.111152   -1.746257    0.190833
H      0.506222    2.096370    0.324553
H      0.272175    0.442304    1.889715
