44

C      6.119275    0.233059   -0.311312
C      5.708815   -0.857209    0.427616
C      5.226202    1.144021   -0.858487
C     -4.288694   -0.696437   -1.264815
C     -4.743192   -0.948320    0.164592
C      4.347812   -1.044570    0.627821
C      3.882431    0.905685   -0.625761
C     -2.798842   -0.695613   -1.254808
C     -4.342175    0.274540    0.941036
C      1.289605    0.822292    0.899562
C      1.359889   -0.578521   -1.075240
C     -0.189955    0.834110    0.786915
C     -0.090833   -0.902778   -0.919334
C      3.408820   -0.155349    0.097504
C      1.955945   -0.380001    0.324953
C     -2.145023    0.244559   -0.315637
C     -2.877969    0.549906    0.937468
N     -0.804485   -0.201361    0.060851
O     -2.720860    1.910608    1.271632
H      7.173008    0.422337   -0.496102
H      6.459195   -1.524039    0.822537
H      5.539950    2.003041   -1.439998
H     -4.632794    0.321392   -1.577221
H     -4.630850   -1.494901   -1.951893
H     -5.837281   -1.017970    0.155054
H     -4.237951   -1.867005    0.511993
H      4.004893   -1.892745    1.203696
H      3.165918    1.598632   -1.039508
H     -2.455931   -1.741433   -1.078806
H     -2.482572   -0.445590   -2.312744
H     -4.704532    0.132705    1.985336
H     -4.914185    1.134488    0.533921
H      1.679975    1.716831    0.349589
H      1.660948    0.962891    1.949913
H      1.434166    0.432323   -1.564946
H      1.876674   -1.356802   -1.636116
H     -0.588777    0.813603    1.842981
H     -0.570195    1.817837    0.379813
H     -0.530480   -0.874353   -1.951784
H     -0.133714   -2.003140   -0.655043
H      1.817850   -1.293652    0.929789
H     -1.979428    1.213035   -0.866668
H     -2.448401   -0.000355    1.828246
H     -2.962251    2.484246    0.477321
