34

C     -3.704965   -1.472691   -0.244240
C     -4.886377    0.711591    0.128957
C      5.582045   -0.592228    0.235449
C      5.003060    0.004689    1.348468
C      4.833439   -0.846366   -0.884995
C      3.652728    0.344727    1.318764
C      3.494815   -0.497076   -0.883878
C     -1.248673   -0.012923    0.452331
C      0.793269    0.171581   -0.960905
C     -3.570369    0.034689   -0.246507
C     -0.634164    0.634533   -0.759984
C      2.894518    0.093287    0.198308
N     -2.575729    0.425649    0.687289
O     -0.640379    2.012866   -0.514543
O      1.570724    0.435017    0.188069
H     -3.349895   -1.930239   -1.205353
H     -4.791151   -1.720701   -0.075419
H     -3.084607   -1.956959    0.548657
H     -5.647123    0.630581   -0.645120
H     -4.645285    1.803259    0.269639
H     -5.225230    0.355006    1.135635
H      6.634559   -0.855487    0.262426
H      5.576438    0.212018    2.240086
H      5.296452   -1.306325   -1.732469
H      3.218440    0.808406    2.191785
H      2.871173   -0.690086   -1.771931
H     -0.633852    0.291848    1.325997
H     -1.227290   -1.131985    0.408893
H      1.183497    0.652481   -1.878693
H      0.824675   -0.933361   -1.143013
H     -3.363657    0.338029   -1.293602
H     -1.174227    0.464033   -1.698208
H     -2.685415    1.368213    1.087228
H     -0.341444    2.153923    0.417597
