38

C     -4.850371   -0.133693    0.057076
C     -3.090711   -0.945501   -1.408415
C      5.425968    0.786999   -1.130280
C     -0.584229    1.936582    0.866867
C      3.976258   -0.163182    0.620948
C      3.070276    0.016775   -1.553955
C      2.807507   -0.704492    1.083641
C      1.876003   -0.526784   -1.121947
C     -2.611438    0.709803    0.411329
C     -3.363262   -0.520177    0.015297
C      4.119879    0.202321   -0.699151
C     -1.113129    0.553295    0.442203
C      1.749294   -0.883777    0.189268
N     -0.741216   -0.376805    1.480566
O      0.674503   -2.551504    1.912501
O     -0.395777   -2.360592   -0.290486
S      0.286229   -1.579340    0.815140
H     -5.091413    0.503630   -0.815278
H     -5.066479    0.449541    0.991203
H     -5.456058   -1.054547    0.111227
H     -2.056988   -0.714782   -1.727884
H     -3.766086   -0.407496   -2.071935
H     -3.233156   -2.047276   -1.469227
H      5.310072    1.175711   -2.168633
H      5.634085    1.614125   -0.405889
H      6.252809    0.080430   -1.057317
H      0.497661    2.005333    0.782936
H     -1.068375    2.687117    0.199429
H     -0.971338    2.091878    1.888980
H      4.805066   -0.019301    1.306831
H      3.179286    0.301372   -2.586244
H      2.689890   -0.991240    2.111565
H      1.079835   -0.654307   -1.840976
H     -2.937376    1.533730   -0.253605
H     -2.947796    0.990999    1.432058
H     -3.188360   -1.336376    0.738255
H     -0.657746    0.245581   -0.490707
H     -0.243317    0.085950    2.251656
