31

C     -4.072470    0.897044    1.638243
C     -2.792507    1.037751    2.115341
C     -4.225663    0.442968    0.330975
C      4.307747    0.135400    0.028765
C      3.783521    1.372562    0.340135
C     -1.701088    0.740984    1.330592
C     -3.117407    0.146804   -0.451063
C      3.486722   -0.837686   -0.524573
C      2.465198    1.701618    0.128127
C      1.208426   -1.498794   -1.329865
C     -1.833701    0.288386    0.028763
C      2.166169   -0.506136   -0.736234
C     -0.060093   -1.365741   -0.477383
C      1.644508    0.730642   -0.424389
C     -0.658042   -0.031240   -0.816397
O     -0.888903   -2.410185   -0.805148
O      0.285671    0.998666   -0.668482
H     -4.950481    1.123784    2.235213
H     -2.657067    1.387424    3.123053
H     -5.243384    0.337150   -0.031053
H      5.351488   -0.080181    0.212669
H      4.449989    2.131785    0.778352
H     -0.701325    0.860356    1.730322
H     -3.316387   -0.200512   -1.455741
H      3.878582   -1.825236   -0.779776
H      2.023897    2.650633    0.357175
H      1.602450   -2.515207   -1.333390
H      0.937668   -1.101256   -2.325286
H      0.259325   -1.401883    0.595776
H     -0.949543   -0.055450   -1.890286
H     -0.683300   -3.154450   -0.155503
