35

C     -3.362186    2.021911    0.810371
C      4.702300    1.080694    1.921768
C     -3.251167    1.809516   -0.562882
C     -2.870885    1.086487    1.697027
C      4.354817   -0.206644    2.223563
C      4.115986    1.692402    0.833042
C     -2.641058    0.646887   -1.001297
C     -2.259081   -0.079396    1.213866
C      3.422534   -0.903676    1.450819
C      3.195823    1.006510    0.069153
C     -0.300650   -1.263357   -1.504391
C     -2.143441   -0.300585   -0.139682
C      2.819334   -0.303835    0.347660
C     -1.512645   -1.502744   -0.649672
C      0.703975   -0.543749   -0.686233
C     -2.467888   -2.296857   -1.461150
N      1.878730   -1.005057   -0.433192
O      0.367857    0.692558   -0.162153
O     -2.747764   -3.470165   -1.118020
O     -3.076468   -1.793684   -2.601306
H     -3.833487    2.920075    1.215753
H      5.419920    1.673161    2.484481
H     -3.638446    2.546924   -1.253223
H     -2.947669    1.233478    2.765448
H      4.825777   -0.673004    3.083743
H      4.381726    2.725287    0.574459
H     -2.547006    0.467024   -2.046776
H     -1.894758   -0.773013    1.953531
H      3.195302   -1.912388    1.743960
H      2.764104    1.528371   -0.773516
H      0.175026   -2.200002   -1.845933
H     -0.502569   -0.645951   -2.393512
H     -1.178268   -2.138053    0.201523
H      0.789312    1.108092    0.645274
H     -3.937089   -2.227216   -2.902632
