37

C     -0.976491    0.586366   -1.530630
C      5.648807   -1.367120   -1.172089
C     -5.480605   -0.855298    0.204258
C     -4.874602   -0.823238   -1.056640
C     -4.745516   -0.560421    1.332910
C     -3.537092   -0.494037   -1.155856
C     -3.411627   -0.237602    1.176823
C      3.651253    1.485808    0.042754
C      3.178261   -0.825527    0.172484
C      2.470728    1.780815    0.687112
C      1.969415   -0.585440    0.829068
C     -1.340036    0.163155   -0.115422
C     -2.785582   -0.196040   -0.037874
C      4.004465    0.186222   -0.214098
C      1.636817    0.726336    1.075488
N     -1.093187    1.292653    0.727527
O     -0.192123   -0.109552    2.822588
O      0.309059    2.271284    2.754903
O      5.221749   -0.054537   -0.875217
S      0.122618    1.057778    1.903964
H     -1.579234    1.456829   -1.860357
H      0.088951    0.944698   -1.467721
H     -1.021019   -0.267486   -2.236470
H      5.761906   -1.959816   -0.225495
H      4.946165   -1.924386   -1.803634
H      6.622219   -1.293432   -1.682977
H     -6.529614   -1.116185    0.254149
H     -5.472135   -1.058884   -1.931953
H     -5.238537   -0.592993    2.291436
H     -3.067387   -0.469476   -2.136171
H     -2.825648   -0.003727    2.059472
H      4.277337    2.341358   -0.245447
H      3.432891   -1.853934   -0.017529
H      2.184041    2.803648    0.893905
H      1.326547   -1.406766    1.130205
H     -0.718417   -0.723411    0.104394
H     -1.964375    1.682358    1.166440
