27

C      1.221785   -0.166606    1.575968
C      1.675295   -0.677591   -0.814912
C     -0.846466   -1.981649    0.412273
C     -0.316641    1.132460   -1.539286
C     -0.907751   -0.269529   -1.434396
C      0.388684    1.389436   -0.213238
C     -1.434784    0.410948    0.821798
C      0.740012   -0.041522    0.180443
C     -0.691658   -0.586917    0.018134
C     -0.700340    1.706169    0.778046
Br    -0.056182    2.272799    2.476818
Br    -1.906605    3.077219    0.094603
O     -2.472447    0.170121    1.406397
H      1.806100   -1.131542    1.646143
H      1.913908    0.617404    1.909938
H      0.357852   -0.320896    2.266619
H      2.713601   -0.482941   -0.450020
H      1.622672   -0.214784   -1.820565
H      1.506321   -1.773979   -0.896363
H      0.049377   -2.613877    0.258207
H     -1.070707   -2.033253    1.513802
H     -1.716229   -2.433976   -0.087374
H      0.331331    1.260356   -2.402911
H     -1.189491    1.842422   -1.600130
H     -0.280445   -0.910562   -2.090932
H     -1.950060   -0.305256   -1.753123
H      1.212866    2.065547   -0.255940
