41

C      1.020116    3.141639   -1.338138
C     -3.680070   -0.147680   -1.225070
C      1.112108   -1.881409    1.464496
C      5.295796   -2.224682   -0.171150
C     -1.365627    1.890151   -0.493747
C     -2.365190    1.625760    0.559300
C      2.287368    1.214114   -0.338603
C      1.093994    1.840518   -0.615262
C     -3.582563   -0.536861    0.228314
C      1.109070   -0.584005    0.739342
C      4.015692   -1.505712   -0.349833
C     -0.085439    1.223979   -0.197883
C     -2.525657    0.213051    0.988450
C      2.300856    0.009906    0.333812
C     -0.104804    0.024248    0.474131
C     -1.327973   -0.643201    0.924931
C     -3.074935   -1.930629    0.274130
O      3.358133   -1.710896   -1.401380
O     -3.721072   -3.015033    0.403432
O      3.514026   -0.610101    0.605641
O     -1.679269   -1.788760    0.139101
H      2.048922    3.437615   -1.627362
H      0.319236    3.107772   -2.188776
H      0.659591    3.950981   -0.638511
H     -4.533471   -0.763520   -1.637077
H     -3.965359    0.903664   -1.378128
H     -2.792694   -0.482955   -1.762114
H      0.748673   -1.795919    2.493038
H      2.180177   -2.238003    1.532062
H      0.584087   -2.684282    0.886664
H      5.249703   -3.186235   -0.730283
H      5.457165   -2.505769    0.894350
H      6.167978   -1.632555   -0.510745
H     -1.218250    3.010510   -0.535844
H     -1.687283    1.629856   -1.530281
H     -3.354641    2.007716    0.224359
H     -2.102301    2.263277    1.451146
H      3.220077    1.653293   -0.641622
H     -4.583678   -0.443140    0.697152
H     -2.899776    0.246297    2.057379
H     -1.092716   -1.082998    1.940581
