42

C      5.245083    2.244175    0.586715
C      3.431820   -2.983748    0.436088
C     -4.818448   -2.180374    1.254447
C     -5.500107   -1.512772    0.261549
C     -3.479156   -1.901712    1.425216
C     -4.854086   -0.577273   -0.552732
C      0.230918    2.526828   -0.274757
C     -0.833143    2.155714   -1.311976
C     -1.381984   -0.743264    0.885326
C      2.508838    1.682783    0.138243
C      1.630029   -0.890024    0.066384
C     -2.827721   -0.964501    0.610987
C      1.159134    1.409238   -0.083053
C     -3.520962   -0.303915   -0.378262
C      0.700347    0.111531   -0.121937
C     -0.722749   -0.203266   -0.354555
C      3.402934    0.652647    0.321373
C      2.969185   -0.643283    0.286693
C     -2.830881    0.666537   -1.216703
N     -1.445951    0.883155   -0.961074
O     -3.415107    1.300921   -2.137107
O      4.742355    0.931058    0.540780
O      3.907907   -1.650042    0.476716
H      6.345207    2.184728    0.765193
H      5.023179    2.786273   -0.363546
H      4.817024    2.849686    1.414576
H      4.215893   -3.719981    0.640667
H      2.643330   -3.042874    1.238020
H      2.911512   -3.193780   -0.521570
H     -5.340096   -2.913826    1.887380
H     -6.548326   -1.737357    0.135183
H     -2.951101   -2.420083    2.195737
H     -5.379480   -0.051154   -1.330975
H     -0.224177    2.780580    0.698127
H      0.794341    3.384459   -0.702929
H     -0.367728    2.152406   -2.304096
H     -1.566258    2.988116   -1.294132
H     -1.235873   -0.050039    1.750960
H     -0.909803   -1.744637    1.081696
H      2.880632    2.711816    0.170437
H      1.326195   -1.925703    0.045943
H     -0.732727   -1.049041   -1.103266
