49

C      0.662556   -2.461734   -0.998133
C      7.023823    0.701112   -1.046591
C     -6.346269   -0.376613    1.152613
C     -3.143210    3.514315   -1.242837
C      2.909734    1.167405   -0.618623
C      2.913406   -0.110005    1.360436
C      4.274232    1.004813   -0.748261
C      4.277856   -0.271088    1.228478
C     -1.683508   -2.307641    1.084328
C     -0.210437   -2.306161    1.212131
C      0.723696    0.792859    0.573414
C     -3.645777   -0.798021    0.801425
C     -2.046698    1.106040   -0.377008
C      2.199839    0.618851    0.430246
C     -2.264752   -1.026633    0.627755
C      4.989261    0.276598    0.180527
C     -1.456857   -0.091640    0.044686
C     -0.018042   -0.323526   -0.135663
C     -4.197918    0.377090    0.382463
C     -3.392780    1.323043   -0.205179
N      0.472767   -1.609764    0.156821
O      6.365828    0.107805    0.057126
O     -5.541049    0.609434    0.546873
O     -3.948582    2.524184   -0.635226
H      0.599928   -1.884558   -1.931088
H      1.695459   -2.875909   -0.917252
H     -0.059453   -3.301030   -1.034518
H      6.667193    0.181201   -1.977879
H      6.746306    1.788411   -1.142477
H      8.117831    0.682341   -0.946423
H     -6.492028   -1.252212    0.482731
H     -7.334827    0.097461    1.380983
H     -5.883842   -0.659465    2.124755
H     -2.521720    3.034285   -2.045709
H     -2.501145    3.979479   -0.461056
H     -3.786638    4.252077   -1.765274
H      2.323866    1.738358   -1.339764
H      2.375516   -0.558954    2.206784
H      4.786303    1.466046   -1.606467
H      4.854004   -0.840449    1.949868
H     -2.050338   -3.107460    0.387503
H     -2.138853   -2.561581    2.072222
H      0.150607   -3.359581    1.198518
H      0.111040   -1.882478    2.189175
H      0.433554    1.743401    0.088028
H      0.411153    0.787027    1.637107
H     -4.227502   -1.593245    1.276364
H     -1.380048    1.823616   -0.834435
H      0.186513   -0.137502   -1.234569
