42

C     -0.945514    3.131530    1.021596
C      3.847627   -1.085397    0.380361
C     -3.058122   -2.705094    0.239680
C      1.219079    2.361571    0.281960
C      1.948761    1.336338   -0.595916
C     -1.987547    0.724208   -0.735780
C     -2.942401   -0.299829   -0.107165
C     -0.229256    2.170513    0.056322
C      2.563230   -1.002294   -0.383485
C     -0.764602    0.793263    0.199214
C      1.616203    0.015332    0.095439
C      1.854812   -2.325013   -0.445728
C     -0.170939   -1.172711   -1.224883
C     -2.062041   -1.548702    0.072687
C      0.166556   -0.336209    0.021928
O      2.246170   -3.331235    0.159709
O      0.719816   -2.302028   -1.249744
O     -1.420479   -1.732738   -1.115627
O     -1.301315   -1.491295    1.188191
O     -0.040362   -1.293324    1.051706
H     -0.437741    2.973829    2.007420
H     -1.996137    2.850136    1.153621
H     -0.783229    4.172717    0.735020
H      4.736035   -0.868844   -0.282543
H      4.021746   -2.078911    0.811840
H      3.899884   -0.272235    1.161405
H     -3.657251   -2.746864   -0.676114
H     -3.761397   -2.352497    1.048305
H     -2.568823   -3.634974    0.526413
H      1.503526    3.377550    0.018766
H      1.448868    2.084270    1.341620
H      3.033354    1.484000   -0.480375
H      1.597231    1.371470   -1.629266
H     -2.494678    1.699654   -0.735746
H     -1.712481    0.384128   -1.731815
H     -3.351596    0.049255    0.840717
H     -3.713961   -0.551042   -0.872452
H     -0.469267    2.591821   -0.965321
H      2.815649   -0.769647   -1.459631
H     -1.225192    0.738364    1.232938
H      1.838994    0.207740    1.187113
H      0.016792   -0.616806   -2.142381
