45

C     -2.490542   -2.793743    0.442369
C     -2.627050    4.708416   -0.599794
C      5.285609    0.858812    0.367082
C     -2.131834    0.660832   -1.824850
C     -2.309071    1.967021   -1.449165
C     -0.209296   -0.958245    1.828097
C     -0.483744   -2.436940    1.726435
C     -1.128541   -1.567884   -1.646041
C      1.991336   -1.922972   -0.693665
C      1.745678    0.271899    0.942438
C     -1.200628   -0.147503   -1.158498
C      0.799553   -1.627036   -0.279107
C     -0.380519   -2.442137   -0.677971
C      3.183797   -1.156598   -0.332559
C     -1.574934    2.494919   -0.414906
C      2.983553   -0.014614    0.533379
C     -0.477956    0.392467   -0.134113
C     -0.641631    1.709799    0.263826
C      0.534524   -0.467189    0.591051
N     -1.084199   -2.809786    0.481812
O      4.325467   -1.462760   -0.745129
O      0.070965    2.281091    1.300457
O     -1.719196    3.814614    0.003631
O      4.021976    0.789409    0.952504
H     -2.966334   -1.797667    0.376620
H     -2.835042   -3.441613   -0.401175
H     -2.887466   -3.275529    1.362354
H     -2.475212    4.762619   -1.709000
H     -2.497549    5.699049   -0.117755
H     -3.680120    4.410908   -0.456231
H      5.878163    1.610083    0.958728
H      5.226704    1.273090   -0.671806
H      5.843433   -0.091275    0.394521
H     -2.716437    0.243597   -2.646495
H     -3.028430    2.626026   -1.949503
H     -1.177661   -0.446182    1.984861
H      0.390506   -0.776094    2.742431
H     -1.147393   -2.745224    2.544730
H      0.486087   -2.976847    1.878750
H     -2.141010   -1.896747   -1.863157
H     -0.565813   -1.530323   -2.603186
H      2.127353   -2.778345   -1.340971
H      1.716103    1.121148    1.621251
H     -0.007809   -3.348033   -1.190751
H     -0.025391    3.215486    1.608504
