20

C      2.575413    0.512353    0.206315
C      2.474416   -0.785673   -0.270828
C      1.431795    1.257007    0.462746
C      1.214724   -1.288497   -0.473232
C     -1.182170    1.290539    0.437426
C      0.179596    0.733721    0.252951
C      0.070340   -0.554101   -0.220571
C     -1.971520    0.492163   -0.589469
C     -1.387693   -0.905580   -0.370400
Br    -3.851346    0.541349   -0.277128
O     -1.835576   -1.342874    0.849383
H      3.541388    0.955416    0.382592
H      3.372202   -1.384411   -0.477324
H      1.587532    2.274102    0.837726
H      1.119960   -2.293560   -0.842923
H     -1.574540    0.981534    1.429517
H     -1.229377    2.369872    0.256126
H     -1.664493    0.813384   -1.593773
H     -1.568954   -1.574864   -1.208648
H     -1.301698   -2.091881    1.209515
