20

C      2.650417   -0.441962    0.202837
C      2.522075    0.905578   -0.065352
C      1.555661   -1.271953    0.308764
C      1.228555    1.390272   -0.224813
C     -1.054217   -1.414907    0.206216
C      0.268818   -0.775608    0.147404
C      0.129886    0.568030   -0.120617
C     -1.918226   -0.492677   -0.612730
C     -1.334716    0.872020   -0.255179
Br    -3.761503   -0.578515    0.016405
O     -1.814262    1.315315    0.974591
H      3.665436   -0.844968    0.332340
H      3.399323    1.523953   -0.141133
H      1.645441   -2.316736    0.516211
H      1.136709    2.447000   -0.434674
H     -1.048888   -2.446130   -0.201987
H     -1.457501   -1.460626    1.237224
H     -1.901786   -0.689728   -1.682872
H     -1.482341    1.609108   -1.059247
H     -2.428883    2.102533    0.856612
