50

C      1.076184   -2.333317    0.300565
C      7.004447   -0.163497    0.725281
C     -6.642646    0.203363    0.360541
C     -2.746916    4.063407   -0.583233
C      2.895406    0.754812    0.760192
C      4.239196    0.446015    0.729320
C     -2.125796   -2.232009    0.673938
C     -1.126218   -2.472912   -0.470733
C      0.608543    0.804326   -0.306800
C      2.647287   -0.118278   -1.412953
C     -3.935367   -0.489497    0.397472
C     -2.025010    1.434351   -0.071395
C      2.060297    0.477801   -0.319104
C     -2.621931   -0.855851    0.421625
C     -1.664303    0.111594    0.186306
C     -0.247047   -0.323055    0.228113
C      4.010919   -0.434261   -1.450434
C      4.816589   -0.149861   -0.369028
C     -4.337511    0.820737    0.144248
C     -3.365056    1.793802   -0.093240
N      0.016070   -1.591863   -0.359791
O      4.553589   -1.029716   -2.565672
O      6.188597   -0.461455   -0.392003
O     -5.664742    1.214652    0.115016
O     -3.751971    3.107667   -0.347995
H      0.649817   -3.272249    0.759073
H      1.798067   -2.722264   -0.475202
H      1.565183   -1.785085    1.108212
H      6.824930    0.894841    1.077290
H      6.759047   -0.804966    1.596324
H      8.081134   -0.191546    0.472437
H     -6.530673   -0.604411   -0.392694
H     -6.373000   -0.243929    1.341733
H     -7.664433    0.609980    0.329024
H     -2.066844    4.047370    0.284243
H     -3.255270    5.052339   -0.718609
H     -2.244881    3.795819   -1.539083
H      2.439407    1.223001    1.621962
H      4.863778    0.672505    1.582297
H     -2.917858   -2.973472    0.593750
H     -1.558812   -2.284992    1.634733
H     -0.828819   -3.517476   -0.540981
H     -1.695663   -2.184155   -1.400596
H      0.483925    1.634342    0.455922
H      0.216232    1.084840   -1.296987
H      2.015117   -0.345089   -2.270023
H     -4.686738   -1.224554    0.577478
H     -1.298571    2.208636   -0.260837
H      0.025362   -0.396990    1.317365
H      5.536956   -1.249452   -2.573686
