40

C     -2.881841   -0.677004   -1.033999
C      4.023201   -2.918501    0.357190
C     -0.486782    4.550239   -0.302941
C      0.829078    4.184008   -0.476617
C     -1.382272    3.569260    0.069461
C      1.277323    2.868958   -0.289602
C     -0.976476   -2.613363    1.316091
C     -2.141088   -2.359527    0.400864
C     -2.049208    1.315054    0.648324
C      1.403679   -2.093263    0.721330
C     -0.980679    2.254721    0.264968
C      0.130670   -1.701060    0.900431
C      0.343467    1.937317    0.080040
C     -1.635260   -0.064074    0.938217
C      2.348682   -1.205105    0.343246
C     -0.239928   -0.370390    0.699747
C      0.720601    0.535889    0.314116
C      2.029750    0.143022    0.128009
N     -2.545078   -1.001962    0.314605
O      3.017813    1.008983   -0.254436
O      3.669386   -1.565587    0.148087
H     -2.072378   -0.059683   -1.487642
H     -2.924860   -1.610879   -1.628571
H     -3.857920   -0.150578   -1.025969
H      3.344541   -3.520247   -0.303011
H      5.085061   -3.123617    0.189817
H      3.729106   -3.162488    1.408121
H     -0.833991    5.570058   -0.447882
H      1.528852    4.947730   -0.767202
H     -2.417720    3.882053    0.201067
H      2.314723    2.710040   -0.452241
H     -1.240950   -2.354945    2.347466
H     -0.679619   -3.666069    1.213996
H     -2.992588   -2.983927    0.738645
H     -1.847530   -2.740334   -0.611869
H     -2.802481    1.380065   -0.193381
H     -2.619733    1.759312    1.527184
H      1.646537   -3.140310    0.889243
H     -1.803791   -0.228396    2.056058
H      3.969704    0.694601   -0.383917
