27

C     -0.910156    1.674013   -1.147866
C      3.581251   -0.046913    0.204894
C      3.004551   -0.855243   -0.756610
C      2.808550    0.852093    0.872545
C      1.649290   -0.749656   -1.037419
C      1.466190    0.940710    0.578664
C     -0.596578    0.273889   -0.665443
C      0.854375    0.153309   -0.372172
C     -1.408815   -0.050375    0.573984
C     -2.856186    0.024450    0.310999
C     -1.106249   -1.416172    1.052901
O     -3.279085    0.324681   -0.819998
O     -3.743141   -0.240558    1.327017
O     -0.643146   -1.559264    2.206837
O     -1.337180   -2.496985    0.228448
H      0.046940    2.173743   -1.461528
H     -1.296048    2.307812   -0.307324
H     -1.587890    1.685793   -2.014618
H      4.648657   -0.116263    0.439677
H      3.614593   -1.567751   -1.286447
H      3.252061    1.486662    1.624737
H      1.187374   -1.369076   -1.779907
H      0.841148    1.664791    1.115646
H     -0.908126   -0.426771   -1.445743
H     -1.168565    0.711757    1.356588
H     -4.706008    0.063102    1.260693
H     -1.407807   -3.441777    0.598566
