24

C      3.060581   -0.132089    0.188800
C      2.781306    1.187483   -0.079989
C      2.036249   -1.070353    0.236538
C      1.458761    1.576466   -0.304713
C     -0.432692   -1.631549    0.052025
C     -1.414382   -0.966720    0.995829
C      0.734475   -0.712638    0.019925
C      0.446955    0.618286   -0.252026
C     -1.900513    0.361278    0.519434
C     -0.956339    0.962220   -0.482927
O     -3.209053    0.302242    0.034406
O     -1.350751    0.469252   -1.746478
H      4.073793   -0.448902    0.364265
H      3.608949    1.880311   -0.106816
H      2.237391   -2.123393    0.448484
H      1.238493    2.614973   -0.516298
H     -0.887882   -1.763616   -0.947750
H     -0.178611   -2.614354    0.489879
H     -2.237795   -1.651250    1.285535
H     -0.837637   -0.790606    1.951362
H     -1.936687    1.076253    1.374378
H     -1.091228    2.071370   -0.561917
H     -3.286160   -0.315160   -0.751997
H     -1.957221    1.100495   -2.209949
