26

C      2.820269    1.752439    0.130415
C      3.811132    0.803964   -0.032845
C      1.519534    1.387109    0.200620
C      3.454334   -0.539531   -0.118410
C     -2.230840    0.337454   -0.849800
C      0.134633   -1.895949   -0.067761
C      1.127932    0.045906    0.109094
C     -1.330044    0.134521    0.383796
C     -0.103543   -0.569197    0.097116
C      2.132986   -0.903738   -0.047555
C     -3.587898    0.455355   -0.236319
C     -2.316475   -0.797785    1.111440
N      1.460980   -2.081104   -0.153660
N     -3.603988   -0.189035    0.877543
O     -4.689476    1.139722   -0.755294
O     -2.125662   -1.817738    1.754439
H      3.075737    2.816444    0.147506
H      4.881651    1.074421   -0.119908
H      0.718100    2.081130    0.325485
H      4.235681   -1.257750   -0.279808
H     -2.003958    1.403966   -1.249425
H     -2.148908   -0.410268   -1.606214
H     -0.584906   -2.689363   -0.098897
H     -1.272164    1.076687    0.929629
H      1.985885   -2.998702   -0.288097
H     -5.360992    1.641043   -0.163092
