44

C     -3.606521   -1.997266    0.807664
C      4.655149   -1.692532   -0.238931
C      2.599628    2.617050   -0.553130
C     -1.466073    3.162677   -1.007749
C     -0.588463    3.705679    1.270041
C     -0.316864   -3.164622   -0.299426
C     -1.328610    1.893833   -0.731036
C     -0.464200    2.429223    1.512586
C     -1.632613   -3.179591    0.384493
C      1.860732   -1.863989   -0.159229
C     -1.897412    0.447947    1.131644
C      0.455244   -1.921355   -0.113952
C     -1.100488    4.158865   -0.013310
C     -1.720411   -0.761233    0.199076
C      2.463052   -0.619577    0.044720
C     -0.251946   -0.780835    0.122606
C      0.300734    0.434381    0.323552
C      1.693049    0.491203    0.278763
C     -0.817220    1.391870    0.548213
N     -2.160195   -1.962136    0.883044
O     -1.229338    5.395453   -0.269809
O      3.848751   -0.581899   -0.003475
O      2.298688    1.710200    0.478097
H     -4.024896   -1.005814    0.498366
H     -3.953792   -2.707809    0.004902
H     -4.084304   -2.342518    1.738987
H      4.427098   -2.139871   -1.218400
H      4.509315   -2.504814    0.522935
H      5.715033   -1.372869   -0.148248
H      2.398177    2.216578   -1.556261
H      3.686393    2.889141   -0.464971
H      2.047840    3.562140   -0.363753
H     -1.852854    3.512715   -1.976817
H     -0.319786    4.476148    2.003012
H      0.300283   -4.069972   -0.097146
H     -0.526705   -3.228824   -1.409209
H     -1.607322    1.176448   -1.489011
H     -0.079511    2.105911    2.477668
H     -1.509238   -3.861885    1.284349
H     -2.430878   -3.688167   -0.217309
H      2.420661   -2.763669   -0.346174
H     -1.582511    0.157432    2.144961
H     -2.891868    0.885373    1.056314
H     -2.235808   -0.609020   -0.750816
