42

C      3.537351    3.649311    0.078385
C     -1.473778   -2.342915    2.246618
C     -3.633424    1.270133   -3.395745
C     -2.377738    0.743905   -3.597985
C     -4.333225    0.893490   -2.270762
C     -1.829025   -0.143530   -2.692843
C     -3.772174   -0.005668   -1.357745
C      3.480774    1.230535   -0.394626
C      2.555067    2.072074    1.670277
C     -1.152524   -0.684858    0.414316
C     -1.910428   -1.485008   -0.599617
C      3.151024   -0.055555   -0.044300
C      2.227445    0.781489    2.015398
C      3.180011    2.278639    0.464273
C     -0.468195   -1.516329    1.468268
C     -2.518509   -0.532184   -1.557867
C      2.516041   -0.290503    1.174664
N      0.577505   -2.344025    0.931041
O      2.060933   -2.102480    3.089850
O      3.199825   -2.816141    1.037361
S      2.119123   -1.931702    1.585206
H      2.661493    4.190558   -0.365236
H      3.875676    4.265410    0.923303
H      4.336746    3.699408   -0.697389
H     -2.142012   -1.679694    2.834311
H     -0.971508   -2.999955    2.983217
H     -2.006688   -3.004504    1.547850
H     -4.076610    1.964511   -4.092992
H     -1.833793    1.038659   -4.475013
H     -5.318005    1.287106   -2.082944
H     -0.827184   -0.538449   -2.892084
H     -4.323409   -0.294655   -0.483165
H      3.974059    1.376730   -1.350098
H      2.328771    2.889088    2.323478
H     -1.917030   -0.061394    0.964350
H     -0.448348   -0.017920   -0.117574
H     -2.708862   -2.112287   -0.143949
H     -1.239833   -2.192361   -1.130724
H      3.379039   -0.896405   -0.706706
H      1.747469    0.594104    2.942343
H     -0.021839   -0.806193    2.187853
H      0.395786   -3.370433    1.096976
