38

C     -5.876811    0.345525   -0.241549
C      0.586326   -0.191965    2.138621
C     -5.176860   -1.003923   -0.349856
C      6.080269    0.131545   -0.034828
C      5.712589    1.235239   -0.772758
C      5.089314   -0.623529    0.535828
C      4.379817    1.551375   -0.919108
C      3.726078   -0.315973    0.396978
C     -2.863182   -0.582827   -1.151834
C     -3.221122   -0.959737    1.184603
C     -1.503144   -0.432510   -0.932860
C     -1.863071   -0.812610    1.423871
C      0.447917   -0.401612    0.629916
C     -3.716705   -0.845503   -0.094350
C     -1.036184   -0.554228    0.372613
C      3.363549    0.776247   -0.333349
C      1.977948    1.174989   -0.533616
N      0.949351    0.645387   -0.115476
O      1.744636    2.355924   -1.331959
H     -5.199321    1.065433    0.263676
H     -6.103421    0.740206   -1.246511
H     -6.779492    0.224884    0.378588
H      0.463353   -1.156931    2.631561
H     -0.156349    0.549832    2.441040
H      1.606723    0.203513    2.397738
H     -5.312653   -1.403898   -1.389523
H     -5.596519   -1.737721    0.368618
H      7.124521   -0.111791    0.076844
H      6.464008    1.847868   -1.232972
H      5.346148   -1.498386    1.122585
H      4.089760    2.424465   -1.502895
H      3.022831   -0.949604    0.869032
H     -3.214467   -0.486831   -2.165399
H     -3.869449   -1.163391    2.017144
H     -0.831656   -0.230727   -1.730268
H     -1.532681   -0.913969    2.434938
H      0.842484   -1.424496    0.364900
H      0.835463    2.529728   -1.713635
