35

C     -3.756784    1.418432    3.041168
C     -0.072662    2.356087   -2.142963
C      4.468108   -2.817526    0.052401
C      4.458519   -1.516341   -0.400591
C      3.281798   -3.523482    0.197814
C      3.241651   -0.944364   -0.701848
C      2.074126   -2.950629   -0.103012
C     -1.526052    1.508333    1.889755
C     -3.415816    0.986958    0.592470
C     -0.731280    1.400521    0.765581
C     -2.622393    0.878738   -0.532738
C     -2.888747    1.303440    1.827464
C     -0.386710    0.971350   -1.673080
C     -1.259027    1.084150   -0.468445
C      2.055876   -1.636506   -0.561201
C      0.785218   -0.979919   -0.896388
N      0.785497    0.216071   -1.311846
O     -0.395257   -1.704102   -0.744264
H     -4.115555    0.403341    3.349399
H     -4.672680    1.975073    2.690754
H     -3.250135    1.929520    3.858101
H      0.901143    2.449352   -2.654418
H     -0.853641    2.668083   -2.877999
H     -0.037543    3.043843   -1.271181
H      5.406629   -3.302801    0.300096
H      5.375520   -0.934690   -0.525460
H      3.295552   -4.556306    0.557895
H      3.191388    0.090979   -1.065881
H      1.119129   -3.471347   -0.002431
H     -1.118355    1.757465    2.868201
H     -4.499524    0.822531    0.535882
H      0.336724    1.561773    0.817949
H     -3.077702    0.624641   -1.501375
H     -0.916362    0.388581   -2.477695
H     -1.180652   -1.501248   -1.353922
