42

C      6.548930   -0.961189    0.035364
C      0.516399   -0.015727    2.349921
C     -6.559832   -0.450896   -0.129621
C     -5.964072    0.784275    0.007488
C     -5.729564   -1.535636   -0.311255
C     -4.586203    0.928414   -0.035698
C     -4.348912   -1.388429   -0.354156
C      4.151108   -1.236792   -0.576449
C      4.930368    0.948750   -0.161377
C     -1.653073   -0.094280    1.111072
C     -2.261375    0.024420   -0.260928
C      2.872884   -0.760365   -0.838277
C      3.656606    1.426877   -0.421937
C      5.192457   -0.398572   -0.236618
C     -0.158259    0.093071    0.991403
C     -3.747962   -0.153849   -0.217364
C      2.605403    0.589971   -0.764021
N      0.102600    1.343874    0.354965
O      1.243297    2.693667   -1.544691
O      0.297454    0.501192   -2.129796
S      1.014255    1.262513   -1.080957
H      7.281958   -0.223887   -0.353808
H      6.664139   -1.881364   -0.563138
H      6.663571   -1.111389    1.120559
H      0.569368    0.971185    2.859880
H      1.527660   -0.438126    2.236905
H     -0.082551   -0.735977    2.949040
H     -7.646765   -0.560997   -0.095063
H     -6.614024    1.644802    0.151181
H     -6.194402   -2.499614   -0.418264
H     -4.126865    1.907872    0.073622
H     -3.698451   -2.255436   -0.498732
H      4.320011   -2.299800   -0.645044
H      5.733547    1.625991    0.103906
H     -1.899193   -1.062166    1.592057
H     -2.039396    0.688977    1.809126
H     -1.792558   -0.767346   -0.887100
H     -2.000531    0.996231   -0.727748
H      2.058332   -1.422603   -1.105199
H      3.496459    2.485226   -0.351709
H      0.303301   -0.703382    0.360646
H     -0.646118    2.040513    0.378996
