35

C     -2.962692    2.357100   -2.233359
C     -3.490773   -1.239176    2.731202
C      4.776882   -2.132837   -0.948782
C     -3.194252    0.071834    3.051147
C     -2.864810   -1.831302    1.672338
C      3.666734   -2.500663   -0.236590
C      4.815825   -0.872184   -1.503964
C     -2.267717    0.781957    2.302831
C     -1.931532   -1.107586    0.922926
C      2.637148   -1.614058   -0.097773
C      3.790979    0.040397   -1.378558
C     -1.627728    0.198756    1.231701
C      2.679628   -0.354616   -0.654208
C     -0.636751    0.976587    0.440807
C      1.545868    0.542683   -0.467758
C     -1.268761    1.313405   -0.858399
N      0.524197    0.181928    0.197126
O      1.537328    1.827369   -1.009354
O     -0.764812    0.904728   -1.917020
O     -2.421978    2.080094   -0.955074
H     -4.051085    2.257668   -2.270354
H     -2.443978    1.776234   -3.035027
H     -2.708381    3.428349   -2.445936
H     -4.226674   -1.776913    3.339117
H      5.598279   -2.828764   -1.064374
H     -3.685318    0.550297    3.889024
H     -3.066111   -2.853782    1.386764
H      3.553222   -3.471154    0.232622
H      5.704867   -0.579501   -2.073512
H     -2.067394    1.805222    2.589998
H     -1.425940   -1.555835    0.083172
H      1.745131   -1.905879    0.472893
H      3.833711    1.038435   -1.824063
H     -0.351868    1.883453    1.011687
H      1.048756    2.607756   -0.581249
