24

C     -3.143506    0.093170    0.766908
C      4.092174    0.686544    0.734106
C     -0.283720   -1.204884    0.143069
C      0.040336    1.103750   -0.124443
C      1.052469   -1.376507    0.431080
C      1.382038    0.942526    0.163168
C     -2.273934    0.205974   -0.451774
C     -0.832372    0.028004   -0.142047
C      1.913677   -0.298863    0.446151
N     -2.732840   -0.822158   -1.393488
O      3.263524   -0.439236    0.732374
H     -4.069467    0.694981    0.634843
H     -3.468224   -0.961904    0.888104
H     -2.629144    0.429764    1.696946
H      3.837742    1.349781    1.585381
H      3.959448    1.214277   -0.243955
H      5.165238    0.377210    0.860234
H     -0.987905   -2.047086    0.125162
H     -0.349401    2.097558   -0.343934
H      1.431792   -2.379813    0.649856
H      2.044314    1.809203    0.169318
H     -2.458761    1.167820   -0.939067
H     -1.995499   -0.969583   -2.132376
H     -2.957978   -1.700530   -0.920400
