25

C      1.880947   -0.683598    1.057435
C      2.434927   -0.298254   -1.320753
C     -2.104401   -1.018261   -0.187612
C     -1.327829    1.970752    0.274475
C     -0.755433   -0.461574    0.077248
C     -0.546034    0.932706   -0.473113
C      1.343613   -0.250078   -0.283899
O     -2.128084   -2.352300    0.209988
O     -1.072996    1.807640    1.630107
O      0.281778   -1.108175   -0.591569
O      0.828943    1.037427   -0.264151
H      2.928581   -1.029101    0.932426
H      1.323039   -1.541633    1.490874
H      1.839981    0.158923    1.804167
H      3.055522   -1.201378   -1.190132
H      3.096175    0.574920   -1.144155
H      2.075537   -0.251340   -2.349056
H     -2.825570   -0.484545    0.466899
H     -2.464941   -0.885282   -1.221954
H     -0.965763    2.968200   -0.064248
H     -2.408602    1.862765    0.061288
H     -0.578312   -0.424759    1.159278
H     -0.776871    0.952112   -1.552743
H     -2.482005   -2.873514   -0.553244
H     -0.652200    2.598347    2.032443
