22

C     -3.129448    1.028929    0.239721
C     -2.383186    1.305613    1.361610
C     -2.582988    0.221350   -0.749040
C     -1.119756    0.770702    1.462965
C     -1.311585   -0.312251   -0.638650
C      1.230360   -1.828297    0.040466
C     -0.576465   -0.038437    0.468744
C      0.792491   -0.565773    0.672330
C      1.610805   -0.580467   -0.643212
C      2.914106    0.055348   -0.499338
O      3.590609   -0.125581    0.535592
O      3.385830    0.858994   -1.525079
H     -4.131429    1.428850    0.115799
H     -2.797928    1.931282    2.134892
H     -3.205871    0.030439   -1.613725
H     -0.525575    0.993169    2.360092
H     -0.921601   -0.933930   -1.425581
H      2.040106   -2.402393    0.512858
H      0.441483   -2.448835   -0.396971
H      1.314284   -0.292276    1.600935
H      1.077913   -0.372526   -1.581560
H      4.287845    1.276092   -1.471743
