24

C     -2.846829   -0.353909   -1.045956
C      4.197749    0.235271   -0.032891
C      0.129946    1.039667   -0.310969
C     -0.367992   -0.996212    0.770854
C      1.479053    0.772069   -0.218308
C      0.957807   -1.295148    0.880712
C     -2.245790    0.491621    0.058795
C     -0.820258    0.172014    0.175928
C      1.881485   -0.398542    0.379610
N     -2.925844    0.218212    1.311569
O      3.241080   -0.657759    0.467517
H     -3.705936    0.197026   -1.513761
H     -3.188450   -1.343450   -0.680489
H     -2.095791   -0.521115   -1.860604
H      3.945176    0.511753   -1.083358
H      5.173479   -0.277454   -0.072735
H      4.219710    1.147516    0.604250
H     -0.170294    1.971068   -0.787415
H     -1.100807   -1.700594    1.164785
H      2.181243    1.497358   -0.622087
H      1.342829   -2.197203    1.338834
H     -2.360748    1.541457   -0.238039
H     -3.092577   -0.813841    1.370527
H     -3.828240    0.760193    1.382132
