36

C      2.007500   -1.024128    1.996364
C     -2.063257    2.079294    0.749516
C      3.673972    2.533985   -0.971342
C      4.164438    1.277384   -1.262891
C      2.529272    2.669510   -0.193785
C     -4.147307   -2.031564   -1.065858
C     -4.649513   -0.786038   -0.753822
C      3.521218    0.163712   -0.784665
C      1.900092    1.512425    0.276351
C     -2.794294   -2.346220   -0.887276
C     -3.781978    0.161234   -0.254193
C      1.675186   -0.959470    0.515917
C      2.388412    0.252694   -0.013618
C     -1.937941   -1.390444   -0.387144
C     -2.426729   -0.143253   -0.071733
C     -0.521530   -1.648395   -0.176189
N      0.277962   -0.753079    0.291714
O      0.047718   -2.888711   -0.472312
O     -1.558489    0.799105    0.426397
H      2.217303   -2.063489    2.310545
H      2.925544   -0.439909    2.227720
H      1.200228   -0.563185    2.618598
H     -1.303129    2.689550    1.298570
H     -2.960084    1.950670    1.423597
H     -2.454904    2.617048   -0.138870
H      4.196935    3.400202   -1.358787
H      5.047272    1.169325   -1.862452
H      2.153238    3.641554    0.029450
H     -4.787268   -2.811743   -1.461705
H     -5.706917   -0.584979   -0.908427
H      3.893253   -0.822955   -1.004647
H      1.013918    1.662482    0.876729
H     -2.409130   -3.329616   -1.136030
H     -4.173701    1.145836   -0.006416
H      2.104799   -1.818554   -0.031162
H      0.737912   -3.320281    0.161855
