28

C      0.932007    0.991643   -1.751172
C     -3.302602    0.870931    1.176937
C     -3.124113   -0.389964    0.662412
C     -2.359160    1.826651    0.960955
C     -2.002924   -0.681411   -0.063001
C     -1.218354    1.502398    0.213578
C      2.439364   -2.201487    0.757601
C      0.935825   -2.459250   -0.751643
C      0.173199   -0.115650   -1.121252
C     -0.999337    0.268648   -0.314458
C      1.932247   -0.917498    0.467699
C      2.375095    0.297920    1.097952
N      1.818982   -3.112025    0.006384
N      1.011812   -1.123416   -0.464214
O      3.299267    0.224119    1.986578
O      1.926714    1.568715    0.869154
H      0.666176    2.008048   -1.468609
H      0.729272    0.965005   -2.873624
H      2.014699    0.742472   -1.693327
H     -4.205388    1.059136    1.745900
H     -3.893826   -1.149161    0.845228
H     -2.492296    2.836301    1.367448
H     -1.892344   -1.694474   -0.457954
H     -0.530774    2.309789    0.084688
H      3.216855   -2.392392    1.486169
H      0.280464   -2.904620   -1.461072
H     -0.307996   -0.680824   -2.006685
H      2.577138    2.350396    0.698327
