24

C      0.578229   -1.185915    1.277008
C      1.147836    1.865661    0.088308
C      1.965493    1.107450   -0.944167
C     -2.086462   -0.956474   -0.397121
C     -0.676111   -1.179016   -0.798003
C     -1.314636    1.241990    0.545449
C     -0.039288    0.980371    0.237958
C     -2.243470    0.119451    0.609660
C      1.664080   -0.308143   -0.670153
C      0.353588   -0.406775   -0.015586
O     -3.132919    0.116614    1.514216
O      2.375283   -1.251043   -0.937063
H      1.017373   -2.166459    0.953991
H     -0.372052   -1.418509    1.777217
H      1.303270   -0.675525    1.939817
H      1.690420    2.029001    1.025196
H      0.885622    2.839806   -0.390515
H      1.724058    1.422863   -1.975635
H      3.036371    1.342174   -0.774507
H     -2.760207   -0.785103   -1.280633
H     -2.466214   -1.887465    0.104701
H     -0.438029   -2.247186   -0.770197
H     -0.559194   -0.858287   -1.865007
H     -1.653041    2.260521    0.745066
