25

C     -0.275147    0.112145    1.875248
C     -3.206424   -0.795703   -0.083410
C      3.417621    0.010812   -1.421095
C      2.841382   -1.219598   -1.182975
C      2.737794    1.164065   -1.070538
C      1.593729   -1.273629   -0.597634
C      1.482179    1.079231   -0.482274
C     -0.455305   -0.217675    0.394284
C     -2.578776    0.509315   -0.468754
C      0.884944   -0.136969   -0.233898
N     -1.326643    0.747157   -0.240706
O     -3.304001    1.521532   -1.085398
H     -0.884575   -0.529225    2.524381
H     -0.573540    1.192037    1.996742
H      0.791228    0.049099    2.178053
H     -2.660441   -1.648599   -0.548276
H     -4.242771   -0.791641   -0.475906
H     -3.248181   -0.893592    1.018083
H      4.385287    0.082248   -1.874276
H      3.351285   -2.158880   -1.447895
H      3.147335    2.150588   -1.236794
H      1.093624   -2.230257   -0.387994
H      0.973678    2.010332   -0.218233
H     -0.846258   -1.238962    0.334830
H     -3.098023    2.506169   -0.978254
