49

C      5.308045   -0.228571   -0.236461
C      3.985629    1.647620    0.575810
C     -5.409657   -0.394593   -0.824202
C      0.460260    1.462103   -1.864080
C     -2.075791   -1.708252   -1.048821
C     -0.969068   -2.607322   -0.559046
C     -4.280040    1.539903    2.095309
C      2.813865   -0.331557   -0.380146
C      1.515485    0.034461    0.284515
C     -3.625187    2.538745    2.782477
C     -2.151517   -0.579732   -0.103027
C     -3.319585    0.888024    1.354852
C      0.335759   -1.908106   -0.604517
C     -3.329083   -0.194926    0.462500
C     -0.951897    0.055331    0.168991
C     -2.115620    1.503882    1.610184
C      4.006119    0.141804    0.435895
C      0.300965   -0.410311   -0.481261
N     -0.960883    1.075977    1.013823
O      1.162860   -2.409906    0.440112
O      4.008889   -0.412516    1.703439
O     -4.539955   -0.800668    0.216995
O      0.412714    0.101498   -1.777425
O     -2.365412    2.471432    2.461837
H      5.206193   -1.167039   -0.835351
H      6.118137   -0.396397    0.514789
H      5.675712    0.557764   -0.925419
H      5.011142    2.035950    0.651958
H      3.415966    1.972746    1.471440
H      3.527370    2.128095   -0.321438
H     -6.385377   -0.072702   -0.449630
H     -4.977649    0.445354   -1.415316
H     -5.539339   -1.242765   -1.509303
H      1.280412    1.968131   -1.351745
H      0.599612    1.693896   -2.961459
H     -0.506281    1.961693   -1.606833
H     -3.047760   -2.240129   -1.121115
H     -1.762000   -1.284388   -2.031825
H     -1.207378   -3.014887    0.453949
H     -0.937692   -3.459131   -1.294337
H     -5.344362    1.287494    2.110763
H      2.882235    0.203436   -1.368101
H      2.960200   -1.405026   -0.550826
H      1.539404   -0.443209    1.306824
H      1.545463    1.130010    0.472772
H     -4.120160    3.234950    3.461609
H      0.871975   -2.188564   -1.538991
H      1.591930   -3.264295    0.131041
H      3.385350    0.084692    2.284686
