22

C      1.450000   -1.649704    0.450400
C     -3.001291    0.396539   -0.016094
C     -2.137194    1.413494   -0.364323
C     -2.484400   -0.839212    0.285025
C     -0.788730    1.243201   -0.422283
C     -1.112235   -1.017320    0.227359
C     -0.246949   -0.009820   -0.118309
C      2.018339    0.758301    0.452089
C      1.191666   -0.273667   -0.160482
O      1.907839    1.019763    1.671589
O      2.936909    1.467406   -0.292993
O      1.532031   -0.347414   -1.532497
H      0.983569   -1.716444    1.443999
H      1.093906   -2.461997   -0.185429
H      2.552790   -1.730979    0.642726
H     -4.060175    0.585606    0.014142
H     -2.551377    2.385140   -0.600477
H     -3.165393   -1.628170    0.556009
H     -0.076409    2.000431   -0.686964
H     -0.765643   -2.027218    0.478315
H      3.690277    2.026309    0.108922
H      1.032469    0.405752   -1.950721
