25

C     -0.140489   -2.106838   -0.819279
C     -2.859734    0.146317    0.989361
C      3.177998    1.377790    0.369823
C      2.596322    0.801921    1.481173
C      2.587164    1.244899   -0.865345
C      1.421069    0.093687    1.345629
C      1.413534    0.533843   -0.980817
C     -0.461987   -0.811984   -0.069558
C     -2.474069    0.381615   -0.442204
C      0.803861   -0.058275    0.124028
N     -1.366969   -0.063118   -0.923797
O     -3.311469    1.085985   -1.269698
H     -0.053888   -1.897430   -1.906238
H      0.764506   -2.553547   -0.400879
H     -1.020681   -2.767583   -0.657808
H     -3.022997   -0.942418    1.089165
H     -3.787480    0.680258    1.206734
H     -2.044845    0.492031    1.660419
H      4.103734    1.934129    0.484563
H      3.054595    0.900988    2.460169
H      3.048185    1.697678   -1.727197
H      0.931370   -0.375632    2.200204
H      0.970147    0.445694   -1.968303
H     -0.933854   -1.056533    0.883194
H     -3.394023    0.816524   -2.263339
