37

C     -2.667648   -2.434350   -0.227814
C     -0.242756    3.362308    0.465123
C     -1.537008    2.914248    0.564915
C      0.831734    2.470078    0.305331
C      2.235713   -2.085877   -0.457890
C      3.554414   -1.723522   -0.419926
C     -3.221265    1.077188    0.607278
C     -3.236906   -0.166335   -0.302847
C     -0.178814   -1.550277   -0.456646
C     -1.832756    1.578592    0.514969
C      1.236349   -1.131455   -0.285543
C      0.534361    1.134020    0.253789
C     -1.056953   -0.783601    0.446519
C      3.894011   -0.409146   -0.210054
C     -0.788208    0.680703    0.360869
C      1.598745    0.179488   -0.072543
C      2.914174    0.586872   -0.028764
N     -2.438890   -1.134637    0.367787
O      5.219078   -0.054472   -0.175607
O      3.339622    1.879214    0.178128
H     -2.498320   -2.392616   -1.309227
H     -3.757376   -2.663108   -0.051183
H     -2.113735   -3.237470    0.287071
H      0.008335    4.427665    0.505358
H     -2.330911    3.666772    0.686738
H      1.795797    2.918971    0.229189
H      1.931350   -3.112794   -0.621007
H      4.316507   -2.474083   -0.555362
H     -3.967778    1.801487    0.278716
H     -3.411197    0.704346    1.640969
H     -4.256573   -0.475455   -0.522346
H     -2.679724    0.157857   -1.228867
H     -0.260345   -2.653424   -0.334401
H     -0.432907   -1.255075   -1.515880
H     -0.744192   -1.116536    1.508929
H      5.922880   -0.764443   -0.304921
H      4.321188    2.078868    0.195669
