26

C      4.386191   -0.730917    0.963846
C     -3.977166    0.464483   -0.027459
C     -3.346493    0.019280   -1.166575
C     -3.285866    0.514805    1.175104
C     -2.027854   -0.367736   -1.071995
C     -1.967329    0.129830    1.278843
C      0.087716   -0.752615    0.154765
C     -1.337052   -0.316611    0.133550
C      0.942468    0.478246   -0.138141
C      2.386829    0.123902   -0.134573
N      0.528141    1.004382   -1.413597
O      3.076552    0.294591   -1.153120
O      3.006051   -0.401488    0.987977
H      4.748413   -0.694954    2.019838
H      4.511300   -1.731635    0.518138
H      4.913540    0.033129    0.360869
H     -5.013576    0.772863   -0.082696
H     -3.852573   -0.033482   -2.119340
H     -3.809586    0.869458    2.052468
H     -1.491858   -0.727177   -1.953994
H     -1.417080    0.167236    2.223935
H      0.353034   -1.204186    1.121860
H      0.252760   -1.515406   -0.631206
H      0.729567    1.249638    0.628397
H      0.780245    1.991321   -1.551709
H      0.823625    0.363044   -2.175184
