17

C      2.469786    0.351747   -0.850557
C      1.152020    0.156284   -0.880440
C      3.088291    0.179897    0.383723
C      0.455487   -0.185905    0.209566
C     -0.967085   -0.457529    0.457469
C     -1.741887    0.801616    0.593315
N     -1.586770   -1.295447   -0.524199
O     -1.352754    1.676006    1.415979
O     -2.883069    1.083965   -0.136180
S      1.749729   -0.262010    1.479960
H      3.075810    0.640983   -1.759615
H      0.586955    0.279938   -1.853614
H      4.196528    0.290235    0.658948
H     -1.046992   -0.995926    1.441554
H     -1.018100   -2.107453   -0.810617
H     -2.486658   -1.656767   -0.146193
H     -3.691291    1.500366    0.320901
