21

C     -1.905868    1.302239    0.238887
C     -1.923723   -1.110288    0.551710
C      2.447778   -0.052155    0.239361
C      0.587112   -0.409566   -1.348064
C      1.042443   -0.594410    0.084296
C     -1.066168    0.046798    0.062645
O      2.516952    1.254356   -0.235601
O     -0.751188   -0.050507   -1.274861
O      0.112184    0.150427    0.779660
H     -1.180030    2.132805    0.398686
H     -2.614410    1.208555    1.081340
H     -2.433180    1.536063   -0.725882
H     -2.945165   -0.927021    0.196605
H     -1.928007   -1.049217    1.665471
H     -1.518677   -2.051788    0.171588
H      3.142040   -0.657534   -0.351020
H      2.749456   -0.035975    1.306162
H      0.783337   -1.320586   -1.911004
H      1.199447    0.399087   -1.783663
H      1.060478   -1.664931    0.359853
H      2.625188    1.893646    0.493829
