27

C     -3.314056    1.334639   -0.964841
C     -2.737674    0.230252   -1.549467
C     -2.845722    1.746619    0.287256
C     -1.730230   -0.466173   -0.943683
C     -1.829566    1.023368    0.870823
C      1.896887    0.531000    1.050487
C      1.634942   -0.991063   -0.756954
C      3.122855    0.907121    0.544790
C      2.882472   -0.591736   -1.249512
C     -1.243239   -0.085101    0.295857
C      1.139681   -0.426929    0.398729
C      3.632404    0.356955   -0.604069
C     -0.168727   -0.799134    0.978832
Cl     5.197869    0.902147   -1.163547
N     -0.301838   -2.237802    0.958014
H     -4.103080    1.897925   -1.415718
H     -3.088831   -0.096899   -2.512352
H     -3.290799    2.615968    0.760563
H     -1.298492   -1.319146   -1.415022
H     -1.481955    1.371337    1.855823
H      1.516177    0.975296    1.953026
H      1.058766   -1.734538   -1.271780
H      3.662480    1.660288    1.102935
H      3.268252   -1.036542   -2.156876
H     -0.194193   -0.514155    2.071240
H     -0.243330   -2.676894    1.899344
H     -1.141053   -2.576806    0.483583
