17

C      2.386852   -0.118526   -0.757341
C      1.056755   -0.161292   -0.849093
C      2.910470    0.523372    0.349354
C      0.265420    0.389563    0.083380
C     -1.198834    0.483377    0.223761
C     -1.731701   -0.799958    0.722958
N     -1.755427    0.862270   -1.044880
O     -2.579247   -1.420775    0.037946
O     -1.336061   -1.358314    1.925906
S      1.454108    1.061544    1.250854
H      3.096896   -0.559515   -1.502836
H      0.563599   -0.672483   -1.731455
H      3.987413    0.697926    0.663294
H     -1.404354    1.253033    1.010042
H     -1.925829    1.890389   -1.076203
H     -2.551686    0.290952   -1.351311
H     -1.238373   -2.361562    2.045623
