36

C      3.638510    0.344195   -0.677782
C     -0.776586    2.820683    0.234359
C     -1.605569   -1.649254    1.279240
C      0.891959   -1.724122   -0.398236
C     -3.360479    0.215657   -1.088773
C     -0.533572   -1.839467   -0.868344
C     -2.764109   -0.903742   -0.767813
C      2.673922   -0.116318    0.397975
C     -1.435505    1.498324   -0.090693
C      1.342727   -0.327198   -0.213115
C     -2.721674    1.476102   -0.762623
C     -0.866028    0.363963    0.212828
C      0.428414    0.271974    0.876759
C      2.446914    1.088914    1.279421
C     -1.483596   -0.942601   -0.093425
O     -3.281794    2.576077   -1.061982
O      3.353538    1.647378    1.981405
O      1.100575    1.435756    1.161343
H      4.042810   -0.501771   -1.264663
H      4.506724    0.867052   -0.193377
H      3.122810    1.100465   -1.303745
H     -0.672623    2.940370    1.343567
H      0.149318    2.966154   -0.320314
H     -1.471285    3.625979   -0.075172
H     -0.707835   -2.253728    1.505641
H     -1.711689   -0.910396    2.083991
H     -2.501556   -2.295580    1.295133
H      1.547757   -2.199263   -1.185061
H      1.050547   -2.359104    0.498142
H     -4.337735    0.201458   -1.601457
H     -0.845466   -2.897628   -0.786393
H     -0.572702   -1.514806   -1.922993
H     -3.247220   -1.828380   -1.016419
H      3.062570   -0.961042    0.976115
H      1.191175    0.227064   -1.156888
H      0.346754   -0.443165    1.723346
