27

C     -3.639718   -0.142451   -0.869885
C     -3.108836    1.099851   -0.674915
C     -3.089331   -1.254540   -0.272595
C     -1.990661    1.236572    0.144046
C     -1.969455   -1.144565    0.552052
C     -0.238209    0.286752    1.619215
C     -1.446717    0.118518    0.737471
C      2.705345   -0.736591   -0.495371
C      2.474116    0.694650   -0.900113
C      1.667656   -1.038435    0.546013
C      1.604124    1.259236    0.171154
N      0.963420    0.161500    0.813139
O      2.576324   -1.600996   -1.576393
O      3.648224    1.443756   -0.920398
O      1.507635   -2.163844    1.044228
O      1.438964    2.467148    0.481394
H     -4.511332   -0.283042   -1.502662
H     -3.523054    1.996295   -1.134214
H     -3.520923   -2.237355   -0.435563
H     -1.543135    2.188390    0.324130
H     -1.559202   -2.016627    1.004369
H     -0.250163   -0.504777    2.393786
H     -0.294129    1.287782    2.110174
H      3.713751   -0.820091   -0.082748
H      1.959356    0.747938   -1.882128
H      2.430899   -2.520956   -1.212048
H      3.995050    1.475882    0.017863
