26

C      2.402394   -0.615202   -0.341325
C      2.326159    0.860703   -0.352429
C      1.119672   -1.344773   -0.462271
C      1.065875    1.452240    0.162261
C     -2.582567   -0.736658    0.011620
C     -2.507064    0.754319   -0.285099
C     -0.049208   -0.713772    0.201381
C     -0.177680    0.726663   -0.236918
C     -1.292606   -1.406373   -0.272374
N     -1.333325    1.363692    0.308132
O     -1.224701   -2.476394   -0.865355
H      2.972283   -0.987573    0.559999
H      3.053807   -0.929746   -1.210216
H      2.537214    1.302819   -1.366159
H      3.167279    1.251034    0.292888
H      1.262296   -2.364101   -0.002139
H      0.851474   -1.569231   -1.535477
H      0.987990    2.501219   -0.249258
H      1.096107    1.591252    1.267308
H     -2.836337   -0.836401    1.097595
H     -3.379628   -1.169341   -0.593244
H     -2.448108    0.934784   -1.370793
H     -3.387972    1.264519    0.109616
H     -0.041664   -0.818423    1.306730
H     -0.242874    0.709810   -1.352682
H     -1.338816    1.254934    1.354570
