27

C      3.769698    0.336227    0.755387
C      3.298625    0.112131   -0.522102
C      2.966904   -0.054291    1.806663
C      2.070206   -0.480545   -0.744442
C      1.736483   -0.647919    1.579396
C     -0.053722   -1.508338    0.032042
C      1.257785   -0.875719    0.309070
C     -2.264216    1.359308   -0.767593
C     -3.003418    0.751386    0.417010
C     -1.521783    0.154552   -1.255127
C     -1.908670   -0.044286    1.037029
N     -1.114406   -0.509081   -0.062815
O     -1.354648    2.260961   -0.284555
O     -3.964044   -0.170699   -0.025046
O     -1.296027   -0.209949   -2.436715
O     -1.683305   -0.286078    2.239211
H      4.739760    0.804271    0.922856
H      3.920950    0.414901   -1.353288
H      3.332642    0.119620    2.828366
H      1.722194   -0.645891   -1.765907
H      1.124868   -0.945563    2.433927
H     -0.045413   -2.057711   -0.932119
H     -0.303978   -2.206947    0.854986
H     -2.949226    1.760070   -1.531225
H     -3.422196    1.506385    1.091235
H     -1.095668    1.988274    0.631418
H     -3.959395   -0.925068    0.627800
