22

C     -2.873837   -0.752579    0.038222
C     -1.522001    1.267763   -0.062101
C     -1.527638   -0.158170    0.403746
C     -0.473101   -0.983718   -0.333352
C      0.882161   -0.475255   -0.036596
C      2.942566    0.444990   -0.718462
Br    -0.567145   -2.809546    0.296364
N      3.086479    1.710817   -0.533790
N      1.637681   -0.048919   -0.970695
O      1.277883   -0.490117    1.306975
O      4.049007   -0.388533   -0.666743
H     -3.681836    0.001859    0.024871
H     -2.850191   -1.202331   -0.984861
H     -3.126773   -1.584219    0.723497
H     -0.482711    1.495909   -0.402803
H     -1.824523    1.985545    0.726071
H     -2.226249    1.415869   -0.903103
H     -1.358921   -0.209415    1.503778
H     -0.714487   -0.962204   -1.406832
H      2.283843    2.375313   -0.563563
H      2.288174   -0.503289    1.516274
H      4.781619   -0.129770   -0.000715
