36

C      0.906878   -2.363785   -0.352875
C      5.468418    0.680346    0.576021
C      4.547116    1.632959    0.877892
C      5.049299   -0.476222   -0.013639
C     -4.697705    1.727743   -0.791463
C     -5.669630    0.905622   -0.355431
C      3.242699    1.429529    0.588212
C      3.734733   -0.707718   -0.323049
C     -3.343015    1.416343   -0.645705
C     -5.360289   -0.307047    0.267418
C      1.386970    0.126800   -0.408180
C     -1.658448   -0.096462    0.461781
C      0.504285   -0.964705    0.088256
C      2.797525    0.245959   -0.032472
C     -3.013065    0.214785   -0.018571
C     -4.048921   -0.613321    0.410157
Cl    -3.538531   -2.139871    1.082880
N     -0.782819   -0.658547   -0.476332
H     -0.003210   -3.024456   -0.448008
H      1.240878   -2.243511   -1.426543
H      1.630083   -2.798607    0.304636
H      6.514244    0.866491    0.833111
H      4.903465    2.563904    1.348240
H      5.803389   -1.208823   -0.319273
H     -4.966942    2.683831   -1.261700
H     -6.711266    1.157896   -0.506344
H      2.509747    2.162818    0.827407
H      3.467837   -1.660427   -0.776554
H     -2.615972    2.068755   -1.005225
H     -6.160411   -0.933533    0.634033
H      0.834311    1.096086   -0.134487
H      1.255355    0.127438   -1.565775
H     -1.220540    1.055914    0.645694
H     -1.585701   -0.527100    1.463647
H      0.362964   -0.972768    1.195716
H     -0.783730   -0.466316   -1.422242
