31

C     -1.230774   -2.348555   -1.039160
C     -4.078519    1.288959    0.956808
C     -3.155153    0.610467    1.753296
C     -4.006446    1.276751   -0.420294
C     -2.132150   -0.098063    1.110871
C     -2.977195    0.561987   -0.999281
C      3.699753    0.913006   -0.834441
C      2.911230   -0.106530    1.137042
C      4.901598    1.165523   -0.220895
C      4.121890    0.150307    1.748233
C     -0.937874   -0.889512   -0.901068
C     -2.038372   -0.125750   -0.264091
C      2.683886    0.271266   -0.162229
C      1.415242    0.016413   -0.842392
N      5.094475    0.783923    1.051225
N      0.323551   -0.631257   -0.238242
O      1.283503    0.395206   -2.038306
H     -1.096453   -2.917475   -0.098901
H     -2.269504   -2.485068   -1.363204
H     -0.590638   -2.754245   -1.869268
H     -4.890757    1.852588    1.428801
H     -3.223363    0.628145    2.840384
H     -4.753848    1.823513   -0.979091
H     -1.388963   -0.642303    1.686475
H     -2.911464    0.545455   -2.064517
H      3.540908    1.221407   -1.865766
H      2.136549   -0.613919    1.699729
H      5.676703    1.673767   -0.785497
H      4.310592   -0.143882    2.772759
H     -0.830120   -0.471867   -1.942921
H      0.411711   -0.950256    0.743940
