29

C     -1.117673   -1.441312    1.163524
C     -1.733983   -0.720875   -1.098236
C     -0.723993    1.784269   -0.636198
C      0.386901    0.948515   -1.245138
C     -0.221732    1.180800    1.658745
C      1.399269   -1.241483   -0.534483
C     -1.233627    0.999897    0.574193
C      1.002747    0.555020    1.028257
C     -0.906912   -0.423035    0.101111
C      0.533857   -0.124483   -0.189358
N      2.246538    0.476251    1.251852
O      3.471348    0.377231   -1.117597
O      3.908775   -1.472865    0.500228
S      2.959560   -0.472650   -0.018837
H     -0.591326   -1.232710    2.106996
H     -2.204744   -1.593478    1.294819
H     -0.714344   -2.404715    0.786924
H     -2.308124    0.148489   -1.488893
H     -2.523746   -1.483040   -0.832198
H     -1.174405   -1.172095   -1.940755
H     -0.245237    2.717294   -0.232910
H     -1.510410    2.020749   -1.349262
H      0.057542    0.492055   -2.207913
H      1.338653    1.477118   -1.316486
H     -0.471472    0.736309    2.619017
H     -0.074879    2.267173    1.816014
H      1.501928   -1.452816   -1.605924
H      1.205848   -2.107239    0.095718
H     -2.256359    1.161627    0.816790
