21

C      0.192387    1.857313   -0.407033
C     -1.138688    1.145522   -0.157280
C      1.195667    1.039795    0.402377
C     -0.712131   -0.298206   -0.236564
C      0.691026   -0.378125    0.310192
C     -1.644670   -1.176408    0.515498
C      1.498552   -1.238304   -0.542389
O     -1.192750   -1.862281    1.470931
O     -2.976272   -1.203870    0.132806
O      0.967497   -1.780876   -1.540460
O      2.848222   -1.514282   -0.333421
H      0.183578    2.890091   -0.015205
H      0.441558    1.825126   -1.479274
H     -1.438047    1.418452    0.876564
H     -1.870320    1.426002   -0.920559
H      2.215287    1.166702    0.019103
H      1.073444    1.374898    1.453183
H     -0.756709   -0.584726   -1.315235
H      0.676820   -0.839225    1.334522
H     -3.665106   -1.471673    0.830649
H      3.410655   -1.795926   -1.136047
