31

C     -1.988371   -0.249555    1.183978
C     -0.723792   -1.904748   -0.200955
C     -1.179482    1.748827   -0.583803
C     -0.250252    1.682058    0.638095
C     -0.015413    0.074383   -1.941067
C      1.129030   -0.227984    1.531212
C     -1.271819    0.363649   -1.136613
C      1.049181    0.282115   -0.854508
C     -0.944915   -0.471543    0.115940
C      0.343183    0.286143    0.431177
N      2.067167   -0.707608   -0.888694
O      3.299540   -1.835370    1.204407
O      3.604258    0.608677    0.820514
S      2.699758   -0.583461    0.719617
H     -1.524807   -0.352923    2.173046
H     -2.753136   -1.058953    1.080472
H     -2.528759    0.710432    1.037283
H     -1.336904   -2.155187   -1.107735
H     -1.154902   -2.519095    0.631163
H      0.307150   -2.214995   -0.353846
H     -2.135188    2.197908   -0.303523
H     -0.640184    2.389512   -1.328501
H     -0.827872    1.708764    1.571299
H      0.552595    2.417808    0.587435
H     -0.059049   -0.996888   -2.235829
H      0.123560    0.751567   -2.782035
H      0.741231   -1.242937    1.841063
H      1.270470    0.410437    2.409137
H     -2.189472    0.085571   -1.608822
H      1.519895    1.276378   -1.088922
H      2.817300   -0.472982   -1.560987
