31

C      2.563849    1.682433    0.305960
C     -2.177699    1.753677    1.026906
C      2.580781    0.253120    0.705667
C     -0.371705   -0.724096    0.694499
C     -2.613103   -1.686723   -0.045341
C      0.237049   -1.305720   -1.672290
C     -3.829663    0.098720    0.211264
C      0.474498   -0.376014   -0.494664
C     -1.819134   -0.659880    0.412722
C      1.939754   -0.682532   -0.254643
C      2.447412   -0.637509   -1.622801
N     -3.858722   -1.191217   -0.162870
N     -2.575354    0.422466    0.564377
O      3.573547   -0.304967   -2.071396
O      1.412087   -1.054616   -2.448465
H      3.345755    1.918326   -0.454765
H      2.855822    2.292987    1.207590
H      1.567216    2.026143    0.014071
H     -3.055061    2.342199    1.328629
H     -1.421719    1.676731    1.840883
H     -1.712433    2.274111    0.159861
H      2.047661    0.159044    1.677758
H      3.619693   -0.092127    0.881411
H     -0.069396   -1.712084    1.093542
H     -0.141856    0.012404    1.489176
H     -2.288935   -2.715768   -0.271601
H      0.314742   -2.377645   -1.369469
H     -0.680201   -1.079027   -2.220686
H     -4.712965    0.755783    0.215155
H      0.330300    0.653311   -0.850080
H      2.017780   -1.721534    0.109603
