22

C      1.804798   -1.831532    0.182632
C      0.483168   -1.409659    0.332137
C      2.816419   -0.898249    0.108375
C      1.180200    0.850606    0.332704
C     -2.013220    0.287776   -0.730976
C      0.161396   -0.071543    0.408054
C      2.498470    0.435854    0.183771
C     -1.235712    0.384154    0.566214
N     -3.348465    0.801655   -0.485172
O      3.520001    1.379058    0.108813
O     -1.881709   -0.374983    1.535235
H      2.018037   -2.890094    0.126830
H     -0.268760   -2.176103    0.384993
H      3.849813   -1.234265   -0.008718
H      0.955603    1.915456    0.389883
H     -2.117018   -0.806679   -0.948793
H     -1.533961    0.844973   -1.550475
H     -1.235926    1.451926    0.854436
H     -3.647605    0.453556    0.440191
H     -3.406187    1.826732   -0.607605
H      3.337136    2.370473    0.159345
H     -1.936477   -1.309112    1.206380
