25

C      2.599903    0.030049    0.777327
C     -2.397312   -0.017694    0.026400
C     -1.649428   -0.276866    1.339999
C     -0.034141   -1.339377   -0.010853
C     -1.382209    0.649351   -0.852125
C      0.347010   -0.686031   -1.312705
C      0.917421    0.639326   -0.875702
C     -0.218947    0.932176    0.096836
N      2.205421    0.702248   -0.392820
N     -0.247266   -0.233376    0.920528
O     -0.881133   -0.207495   -1.845652
H      2.783818   -1.054549    0.693702
H      1.946814    0.313736    1.622869
H      3.610275    0.449489    1.075252
H     -2.809354   -0.937346   -0.391485
H     -3.186453    0.722255    0.254999
H     -1.921196   -1.277756    1.751254
H     -1.883095    0.476764    2.093636
H      0.658495   -2.091043    0.351003
H     -1.002415   -1.891156   -0.203434
H     -1.710190    1.618611   -1.251873
H      0.924252   -1.254785   -1.997679
H      0.745152    1.336120   -1.749981
H     -0.214959    1.886306    0.551080
H      2.799537    1.511043   -0.670578
