22

C      3.462740    0.263675   -0.325209
C      3.066372    1.471417    0.204421
C      2.588059   -0.762475   -0.541111
C      1.717932    1.637276    0.527198
C     -0.999686   -1.564013   -0.040221
C      1.261877   -0.611816   -0.228335
C      0.827322    0.597450    0.309244
C     -1.413840   -0.109948   -0.114876
C     -2.814365    0.056589    0.277026
N     -3.180821    0.793582    1.276702
O     -3.790794   -0.604170   -0.454839
O      0.354932   -1.643649   -0.440139
O     -0.525953    0.701648    0.609827
H      4.509795    0.110066   -0.585163
H      3.740779    2.284437    0.379087
H      2.928019   -1.710657   -0.962480
H      1.361203    2.571420    0.946535
H     -1.628174   -2.108461   -0.774342
H     -1.174490   -1.985595    0.969749
H     -1.339547    0.175086   -1.202611
H     -4.179994    0.907724    1.550254
H     -4.771368   -0.469588   -0.356350
