34

C     -2.874734    0.948636    0.442626
C      4.006334    2.229849    1.702111
C      2.518434   -2.747701   -0.148159
C      0.189639    1.719570   -0.307656
C      1.403094    1.923548    0.340601
C      0.734311   -0.554786   -0.544854
C     -1.427015    0.200658   -1.452636
C     -0.159572    0.465903   -0.760939
C      2.289613    0.885226    0.549176
C      1.945679   -0.370125    0.098093
C     -2.389675   -1.392741    0.212529
C     -2.574209   -0.164800   -0.550714
N     -3.747780   -0.294040   -1.390171
O     -1.460568   -1.583305    1.046925
O     -3.274408   -2.443340    0.036545
O      3.499464    1.036833    1.183998
O      2.792060   -1.450146    0.277419
H     -3.919090    0.878106    0.817492
H     -2.781988    1.893283   -0.107219
H     -2.220244    0.886845    1.339258
H      5.060465    2.046388    2.004656
H      4.044363    3.055590    0.956889
H      3.460435    2.526487    2.602753
H      3.213913   -3.437011    0.410095
H      2.763265   -2.901740   -1.221173
H      1.469197   -3.069744    0.062083
H     -0.488908    2.551342   -0.459027
H      1.680800    2.894461    0.695249
H      0.472539   -1.539493   -0.896615
H     -1.723173    1.147097   -1.972120
H     -1.304653   -0.555382   -2.227533
H     -3.542715   -0.498337   -2.373363
H     -4.368883   -1.014939   -0.966605
H     -3.285990   -3.272191    0.600286
