28

C     -2.535491    1.297452    1.301628
C      3.716609   -0.641640   -0.472395
C      3.841302    0.704549   -0.207901
C      2.436606   -1.151172   -0.541063
C      2.760440    1.520953   -0.017999
C     -0.821665   -1.788689   -0.584737
C     -2.055179   -1.662643    0.301931
C     -2.155522    0.718680   -0.052151
C      1.326440   -0.324125   -0.348298
C     -0.013231   -0.572180   -0.363460
C      1.482483    1.009938   -0.087014
C     -0.677037    0.607762   -0.111914
N     -2.810779   -0.540609   -0.189763
N      0.250468    1.543394    0.050475
H     -1.670503    1.894021    1.708316
H     -2.737032    0.480303    2.005024
H     -3.424868    1.932466    1.166598
H      4.601153   -1.272501   -0.620392
H      4.854782    1.109562   -0.153217
H      2.267340   -2.197956   -0.744892
H      2.865616    2.580783    0.190052
H     -0.276686   -2.719893   -0.424683
H     -1.196287   -1.754316   -1.629678
H     -1.790800   -1.484441    1.357543
H     -2.701758   -2.555039    0.231135
H     -2.458231    1.402583   -0.878827
H     -3.187192   -0.704116   -1.141907
H      0.109024    2.566874    0.257590
