37

C      5.281106    0.718731    1.425803
C      2.250019   -2.152618   -1.587209
C     -5.959560    0.357198    0.996698
C      3.837198    0.928563    1.848214
C      0.079976   -1.282158    0.246564
C     -1.242698   -1.095258    0.579355
C     -2.159753    1.594923   -1.696838
C     -3.485739    1.762409   -1.343731
C     -0.044725    0.456721   -1.407254
C     -3.273556    0.054375    0.245758
C      2.109775   -0.734959   -1.080703
C      0.671246   -0.514848   -0.735234
C     -1.378406    0.647615   -1.074080
C     -1.948990   -0.128287   -0.091939
C     -4.080777    0.994159   -0.359543
C      2.988383   -0.553267    0.075914
O      3.705841   -1.487526    0.477636
O     -5.413710    1.183168   -0.024806
O      3.020054    0.665649    0.725398
H      5.932687    1.252133    2.127279
H      5.566647   -0.359349    1.482071
H      5.379334    1.120618    0.400629
H      1.302065   -2.526561   -2.043122
H      2.477595   -2.788931   -0.708181
H      3.064090   -2.248017   -2.335780
H     -5.348255    0.456329    1.914116
H     -5.833792   -0.697823    0.620121
H     -7.020818    0.602814    1.182929
H      3.726610    2.007061    2.098078
H      3.574853    0.312188    2.721127
H      0.663672   -2.036752    0.757745
H     -1.699982   -1.713789    1.363236
H     -1.700599    2.215045   -2.483016
H     -4.106425    2.508950   -1.832565
H      0.400963    1.068079   -2.179596
H     -3.740308   -0.560711    1.029972
H      2.405973   -0.025877   -1.890041
