37

C     -5.277305   -0.026868    1.927979
C     -2.232464    0.966257   -2.279504
C      6.512040   -0.398494    1.231424
C     -5.395316    0.061947    0.439255
C     -0.329320   -1.074969   -1.031555
C      0.941398   -1.638409   -0.866514
C      2.687579    1.142466    0.677400
C      3.941651    0.594407    0.843227
C      0.440826    0.925201   -0.063975
C      3.232650   -1.436968   -0.117910
C     -1.908781    0.837312   -0.787681
C     -0.594373    0.213790   -0.632052
C      1.702902    0.371718    0.102216
C      1.953517   -0.917809   -0.301818
C      4.245354   -0.700973    0.452641
C     -2.992548    0.117458   -0.083071
O     -2.840259   -0.921204    0.587310
O      5.529158   -1.224818    0.636180
O     -4.274825    0.644643   -0.180180
H     -4.586305    0.700775    2.373716
H     -4.997913   -1.074824    2.192969
H     -6.300320    0.128468    2.363793
H     -2.468464   -0.018354   -2.725288
H     -3.117895    1.643880   -2.361720
H     -1.353710    1.460586   -2.740562
H      6.208837   -0.109027    2.267537
H      6.655557    0.527078    0.665829
H      7.482020   -0.943338    1.238858
H     -5.643143   -0.940400    0.012385
H     -6.270937    0.716146    0.185739
H     -1.108662   -1.661317   -1.478039
H      1.147006   -2.660875   -1.184850
H      2.471253    2.160306    0.990857
H      4.738724    1.168369    1.290336
H      0.284783    1.946357    0.268425
H      3.414092   -2.454100   -0.441355
H     -1.896809    1.875582   -0.399338
