34

C     -2.091596    1.288724    0.431105
C     -3.423081    1.571310    0.665637
C     -2.706324   -0.492134   -0.988173
C      4.485023    0.199598    0.782925
C      2.473223    1.105288    1.547329
C     -1.706965    0.242077   -0.407743
C      3.851295    1.112323    1.584651
C     -4.414577    0.819458    0.071367
C     -4.055960   -0.212708   -0.755896
C      3.794005   -0.707852   -0.043337
C      1.748743    0.254056    0.770410
C      2.410986   -0.674378   -0.043116
C      1.568178   -1.551286   -0.809465
C      0.136275   -1.274499   -1.169746
C     -0.268544    0.037120   -0.591266
O      4.612149    1.961016    2.360539
O     -5.770160    1.089167    0.295922
O     -5.067832   -0.957628   -1.344495
O      4.477305   -1.593648   -0.823215
O      2.055102   -2.637306   -1.213892
O     -0.648668   -2.329583   -0.648938
O      0.353871    0.214340    0.699992
H     -1.339989    1.906617    0.919908
H     -3.749275    2.381019    1.314769
H     -2.444308   -1.298786   -1.641373
H      5.563461    0.127442    0.742257
H      1.939917    1.814923    2.169463
H      0.079910   -1.272824   -2.276476
H      0.067862    0.844019   -1.305462
H      4.940463    2.874997    2.050442
H     -6.042388    1.848952    0.904931
H     -4.784773   -1.715444   -1.952004
H      4.153784   -2.253315   -1.437676
H     -0.197111   -2.721052    0.140626
