36

C      4.167392    2.572958   -0.055500
C     -2.840850   -1.668025    1.561177
C     -2.930033    1.441347   -2.390200
C     -3.797791    1.008663   -1.409679
C     -1.618339    1.025062   -2.315609
C     -3.369928    0.187410   -0.388317
C     -1.202932    0.199798   -1.283422
C      3.325531    0.301530   -0.554664
C      2.474137    1.377013    1.374189
C      2.524758   -0.804730   -0.268673
C      1.685447    0.270326    1.643506
C      3.305683    1.408322    0.270860
C     -1.633652   -1.125214    0.813517
C     -2.053344   -0.239761   -0.299816
C      1.694311   -0.834255    0.834453
N     -0.797740   -2.190177    0.354709
O      1.471716   -3.499141    0.711137
O      0.501264   -2.362089    2.600997
S      0.733530   -2.259284    1.107139
H      4.166502    2.744044   -1.148919
H      3.780842    3.465474    0.477121
H      5.206733    2.397853    0.300290
H     -3.304510   -0.848887    2.127464
H     -2.419973   -2.376749    2.326669
H     -3.524479   -2.217907    0.913093
H     -3.257943    2.087808   -3.197739
H     -4.823548    1.329887   -1.461771
H     -0.933357    1.356898   -3.075482
H     -4.065797   -0.141675    0.371957
H     -0.172613   -0.116916   -1.242010
H      3.975200    0.305554   -1.431429
H      2.452663    2.244765    2.029432
H      2.556005   -1.657801   -0.926546
H      1.037079    0.257597    2.512220
H     -1.067146   -0.541985    1.578799
H     -1.244817   -3.097714    0.212592
