26

C     -3.415812    0.036746    1.345572
C      4.722386    0.723224    0.112890
C      1.792160    0.673711    0.130834
C      1.912068   -1.660311   -0.087245
C      0.392636    0.631196    0.137664
C      0.521452   -1.746479   -0.084544
C     -2.546760    0.326033    0.131847
C      2.558115   -0.452963    0.020106
C     -0.236996   -0.570739    0.030689
C     -3.402737    0.369168   -1.105013
O     -4.309697    1.219070   -1.190374
O     -3.209984   -0.515599   -2.159614
O      3.931905   -0.419646    0.012619
O     -1.602262   -0.684021    0.030665
H     -2.998494    0.490774    2.268324
H     -3.459775   -1.056729    1.509745
H     -4.436867    0.428388    1.120228
H      4.277352    1.361371    0.924673
H      4.702537    1.356887   -0.795466
H      5.747383    0.469709    0.441492
H      2.289422    1.629315    0.215901
H      2.431547   -2.607462   -0.179371
H     -0.164558    1.574884    0.229753
H     -0.008443   -2.685137   -0.167794
H     -2.116192    1.325301    0.221405
H     -3.370385   -0.216691   -3.114988
