41

C      2.018699    2.632615   -0.830191
C      3.375212    2.833018   -0.698695
C     -1.034022   -1.820106    1.988635
C      0.247922   -1.986022    1.252991
C      0.056269    1.096964   -0.811706
C     -3.436390   -1.567447    1.264171
C     -2.681832    0.355719   -0.498671
C      1.807150   -1.046873   -0.241505
C     -6.326722   -0.022415   -0.325038
C      5.945620    0.371111   -0.416725
C      1.522027    1.369049   -0.679147
C     -2.121900   -1.216254    1.173978
C     -1.732695   -0.233515    0.273873
C      2.340682    0.318891   -0.403803
C     -0.282827    0.086783    0.240767
C      4.214864    1.774488   -0.419386
C     -4.420772   -0.986134    0.492556
C     -4.020302   -0.001220   -0.407484
C      3.687781    0.506467   -0.271302
N      0.439883   -1.134664    0.130499
O      5.600025    1.732579   -0.243839
O     -5.809292   -1.145994    0.378019
O     -5.185986    0.409501   -1.045253
O      4.786290   -0.313303   -0.000454
H      1.347137    3.488940   -1.055205
H      3.753429    3.845697   -0.822164
H     -1.406877   -2.820676    2.343403
H     -0.894453   -1.219887    2.911385
H      0.289993   -3.049703    0.875440
H      1.081414   -1.933698    2.001774
H     -0.143915    0.692294   -1.838105
H     -0.502741    2.016095   -0.608026
H     -3.726570   -2.345389    1.980225
H     -2.374809    1.125563   -1.203348
H      1.913181   -1.543886   -1.248577
H      2.485364   -1.606478    0.437561
H     -6.581387    0.791645    0.402119
H     -7.167602   -0.285863   -0.973476
H      6.800052    0.080898    0.254736
H      6.182172    0.192633   -1.487634
H     -0.044075    0.558577    1.231525
