31

C     -3.405353    1.093083   -0.841279
C     -2.866671   -1.711902    0.213894
C      5.439433    0.390198   -0.238402
C     -3.190084    0.746824    0.587341
C      0.017219   -0.014788    1.439758
C     -0.525902   -0.016055   -0.870767
C      1.334351    0.260045    1.160378
C      0.787743    0.259620   -1.182201
C     -2.312186   -0.453807    0.835683
C      4.036856    0.044321    0.107911
C     -0.928794   -0.156868    0.444025
C      1.718232    0.397334   -0.157793
N      3.081519    0.681906   -0.447624
O      3.726224   -0.960252    1.025702
H     -3.609785    0.239638   -1.508387
H     -2.638364    1.784122   -1.269163
H     -4.355789    1.707366   -0.880709
H     -2.826210   -1.730383   -0.874251
H     -2.240815   -2.557721    0.618791
H     -3.875276   -1.867028    0.612412
H      5.463239    1.470987   -0.496819
H      6.117831    0.132111    0.580659
H      5.734796   -0.231941   -1.113457
H     -2.719942    1.613475    1.095573
H     -4.193305    0.606206    1.079660
H     -0.284751   -0.123479    2.495040
H     -1.250860   -0.126635   -1.646335
H      2.047374    0.364310    1.972438
H      1.105216    0.370657   -2.218075
H     -2.338237   -0.620172    1.931968
H      2.952290   -1.591170    0.821382
