26

C     -2.618108    0.219206   -1.800592
C      4.527740   -0.789711    1.000306
C      2.202912    0.711201    0.545666
C      0.977772   -1.320185    0.180638
C      1.032050    1.446156    0.315772
C     -0.160849   -0.551851   -0.040548
C     -2.555369    0.979556   -0.509695
C      2.149226   -0.656173    0.472849
C     -0.155919    0.813433    0.021246
C     -3.148568    0.200386    0.633639
O     -2.583341    0.052571    1.726501
O     -4.397175   -0.369257    0.416288
O      3.305101   -1.414803    0.698334
O     -1.308212    1.510960   -0.206130
H     -3.013205   -0.803315   -1.635549
H     -3.268231    0.704139   -2.563906
H     -1.596166    0.167499   -2.247284
H      5.266540   -1.594517    1.214511
H      4.413458   -0.134737    1.896988
H      4.855662   -0.190889    0.138693
H      3.124731    1.211758    0.774630
H      0.917032   -2.405170    0.118791
H      1.062065    2.533069    0.370819
H     -1.063163   -1.074326   -0.266052
H     -3.258211    1.857758   -0.630532
H     -4.707772   -1.102758    1.059602
