36

C     -5.596754    0.181147    0.820455
C      0.805768   -0.712862    1.517939
C      5.382224    1.029960    0.359918
C      5.024984   -0.299827    0.299304
C      4.369293    1.964531    0.357867
C      3.680993   -0.678606    0.238159
C      3.029338    1.587653    0.296931
C     -3.388690    1.043220   -0.013261
C     -3.900168   -1.232562   -0.326769
C     -2.159899    0.851060   -0.641213
C     -2.683952   -1.426143   -0.949088
C     -4.278949    0.003522    0.153993
C      1.237370   -0.117906    0.172064
C      2.672225    0.258271    0.236338
C     -1.783667   -0.384886   -1.120668
N      0.985725   -1.136208   -0.816933
O     -0.455357   -1.655127   -3.000561
O      0.174617    0.638603   -2.589699
S     -0.246905   -0.658798   -1.912006
H     -5.497003    0.101886    1.920462
H     -6.295183   -0.550028    0.389698
H     -6.018481    1.193442    0.567482
H      1.132830   -1.748230    1.629338
H      1.269715   -0.105471    2.302140
H     -0.303317   -0.697296    1.567137
H      6.432284    1.314798    0.407282
H      5.811660   -1.030415    0.300732
H      4.651841    3.006345    0.405445
H      3.416736   -1.709689    0.191618
H      2.263985    2.337175    0.296950
H     -3.679294    2.024954    0.363742
H     -4.597979   -2.063122   -0.199489
H     -1.479022    1.680285   -0.762230
H     -2.384918   -2.402234   -1.328698
H      0.586267    0.766831    0.025853
H      1.821682   -1.374271   -1.371536
