41

C      4.957887    0.193930   -0.954706
C     -3.549769    1.936037    1.420870
C     -3.456452   -2.705126   -1.008802
C     -4.507876   -2.078710   -0.377778
C     -2.236696   -2.060184   -1.030835
C     -4.332140   -0.843232    0.210479
C      0.728525    2.346406   -0.129543
C     -0.498018    2.283772    0.710511
C      3.352069   -2.813732    0.281207
C      2.492847   -1.826309    0.731597
C      2.342557    0.629872    0.624923
C      4.106287   -0.854832   -0.343639
C      1.350283    1.035052   -0.465618
C     -2.066071   -0.818785   -0.438020
C     -3.111737   -0.180752    0.197337
C     -1.394349    1.156013    0.388237
C     -0.990063    0.040206   -0.307306
C      0.375339   -0.039574   -0.746970
N      4.336523   -2.161675   -0.379674
N     -2.692524    0.995537    0.683923
N      2.965669   -0.628137    0.342304
O      0.744590   -1.060087   -1.391376
H      5.461309    0.792969   -0.161841
H      5.711368   -0.264140   -1.628825
H      4.355227    0.887534   -1.575664
H     -2.943771    2.753978    1.808908
H     -4.048571    1.409879    2.263248
H     -4.291185    2.327711    0.690679
H     -3.610685   -3.680474   -1.468691
H     -5.473168   -2.564419   -0.347564
H     -1.381762   -2.531227   -1.524109
H     -5.149709   -0.339881    0.709575
H      0.530107    2.952056   -1.056244
H      1.485588    2.940177    0.438129
H     -1.071918    3.221701    0.552888
H     -0.276649    2.227564    1.792775
H      3.252989   -3.861985    0.427528
H      1.587583   -2.011431    1.305643
H      3.140611    1.403031    0.640061
H      1.852601    0.625916    1.599099
H      1.953156    1.165351   -1.389578
