30

C     -4.626323   -0.965836    0.356437
C     -3.690851   -1.733465   -0.316421
C     -4.299090    0.230873    0.914294
C     -2.377894   -1.258376   -0.420332
C     -2.985396    0.675260    0.793556
C      4.323946    0.471270    0.095721
C      3.387138    1.223687   -0.580868
C      2.566866   -0.959561    0.902757
C     -0.319498    0.990613   -1.333743
C     -2.030885   -0.056973    0.134625
C      3.899517   -0.615161    0.831795
C      2.053218    0.868844   -0.502465
C      1.015205    1.628501   -1.198949
C     -0.674515    0.442446    0.031900
C      1.614720   -0.224821    0.237019
O      4.820907   -1.397204    1.527914
O      1.269979    2.770413   -1.653870
O      0.267305   -0.579102    0.313178
H     -5.648598   -1.332739    0.438968
H     -3.949275   -2.679647   -0.757581
H     -4.998351    0.856436    1.445270
H     -1.678674   -1.903435   -0.961855
H     -2.756651    1.639564    1.252685
H      5.381434    0.742250    0.041114
H      3.674871    2.088522   -1.173611
H      2.227999   -1.821921    1.486761
H     -1.075742    1.677436   -1.733432
H     -0.204030    0.127953   -2.040040
H     -0.459449    1.291459    0.747501
H      5.272119   -2.197285    1.121671
