30

C     -3.554889    1.134708   -0.924132
C      5.566245    0.501650    0.137089
C      4.723093   -0.522789    0.033227
C     -0.713938    0.663100    0.806576
C     -1.404746   -1.076657   -0.618085
C      0.603135    0.250305    0.629845
C     -0.114659   -1.477195   -0.788261
C      5.076809    1.768058   -0.001246
C     -3.110173    0.463350    0.386040
C     -1.734214   -0.005632    0.176489
C      0.951806   -0.819973   -0.162756
C      3.410634   -0.325459   -0.203452
C      2.315572   -1.246857   -0.375082
C     -4.082397   -0.588719    0.678993
O      2.549353   -2.424256   -0.712506
O     -3.796563   -1.810641    0.763453
O     -5.409392   -0.236323    0.879662
S      3.303913    1.460231   -0.297135
H     -4.022576    0.393654   -1.581215
H     -4.258855    1.963585   -0.705725
H     -2.677798    1.570454   -1.463377
H      6.675774    0.370425    0.336571
H      5.085671   -1.589851    0.139647
H     -0.899108    1.520584    1.450278
H     -2.225653   -1.592750   -1.108448
H      1.369010    0.801974    1.145916
H      0.169789   -2.316555   -1.410339
H      5.537369    2.769406    0.036084
H     -3.144190    1.234377    1.181642
H     -6.189023   -0.832204    0.562119
