41

C      6.339228    0.719073    0.133537
C      0.119485   -0.883044   -1.942199
C     -4.956426    0.505764   -0.058683
C     -3.882915    1.209786   -0.822699
C     -4.330288    0.017223    1.248045
C      4.345598   -0.571740   -0.605182
C      4.088104    1.218278    0.974086
C      2.991050   -0.822181   -0.567820
C      2.743282    0.945016    0.989996
C     -2.725599    0.260836   -1.196088
C     -2.828546    0.124725    1.203134
C     -1.404449   -1.404196    0.007185
C      4.895367    0.439592    0.157991
C      0.000323   -1.257789   -0.512775
C      2.163956   -0.069938    0.229192
C      0.750720   -0.276564    0.298555
N     -2.240587   -0.302856   -0.025139
O      0.057280    0.424618    1.108048
H      6.594298    1.362452   -0.734763
H      6.914488   -0.241240    0.067854
H      6.630281    1.217650    1.080748
H      0.630716    0.055425   -2.154666
H      0.706808   -1.691756   -2.471981
H     -0.874583   -0.949652   -2.480052
H     -5.295707   -0.365558   -0.678137
H     -5.770203    1.232121    0.118213
H     -3.437385    2.049982   -0.271951
H     -4.276016    1.602888   -1.798033
H     -4.724552    0.710163    2.040686
H     -4.712276   -0.987208    1.457310
H      4.970504   -1.174272   -1.236676
H      4.506171    2.011573    1.576962
H      2.632790   -1.628843   -1.181028
H      2.084670    1.525148    1.608553
H     -2.017230    0.958061   -1.736358
H     -3.121641   -0.439207   -1.937868
H     -2.568981    1.191819    1.358566
H     -2.393786   -0.449938    2.024314
H     -1.849319   -2.282142   -0.512550
H     -1.292293   -1.744368    1.079377
H      0.537659   -2.239701   -0.351390
