41

C     -1.082310   -3.142745   -1.301977
C     -1.306993   -1.642582   -1.366431
C      4.264833    2.316847    1.422663
C      3.773287    2.658174    0.180743
C      3.830395    1.145878    2.002741
C      2.853396    1.845843   -0.490245
C      2.913299    0.336548    1.333187
C     -4.102861    0.184564   -0.173010
C     -2.774100    1.514310    1.219060
C     -4.956101    1.263508   -0.380757
C     -3.646990    2.582386    0.993855
C     -2.109468   -0.887721    0.827550
C      2.119726   -1.546196   -0.912683
C     -2.987375    0.285886    0.635041
C      2.421324    0.675636    0.093069
C      1.421396   -0.235195   -0.604633
C      0.200694   -0.354052    0.189416
N     -4.719979    2.444709    0.202006
N     -1.019735   -0.956100   -0.142499
O      3.241615   -1.260987   -1.746185
O      0.289961    0.193627    1.369512
H     -0.668117   -3.458214   -2.281766
H     -0.378115   -3.434279   -0.517030
H     -2.059697   -3.696439   -1.203114
H     -2.358577   -1.519933   -1.710038
H     -0.704777   -1.203726   -2.222061
H      4.976149    2.942272    1.944611
H      4.075763    3.556032   -0.317212
H      4.182843    0.827760    2.976827
H      2.466003    2.116436   -1.470827
H      2.558863   -0.590072    1.773734
H     -4.335049   -0.733529   -0.654979
H     -1.926233    1.674609    1.867471
H     -5.816013    1.098166   -1.034812
H     -3.487653    3.555950    1.449837
H     -2.683782   -1.841066    0.843005
H     -1.641565   -0.808473    1.826351
H      2.501896   -2.069566   -0.034912
H      1.498555   -2.225367   -1.518924
H      1.185508    0.248970   -1.565584
H      3.989984   -1.861869   -1.501000
