41

C      6.413824   -0.162746   -0.728946
C      0.294256   -0.664405    1.699677
C     -4.967811   -0.773905   -0.565953
C     -4.439180    0.662981   -0.472180
C     -3.854616   -1.759519   -0.440016
C      4.054025   -0.781977   -0.357619
C      4.629766    1.512046   -0.312387
C      2.740701   -0.478314   -0.109831
C      3.317086    1.798828   -0.065599
C     -3.704118    0.712770    0.848658
C     -2.547273   -1.216778   -0.026104
C     -1.406469    0.811403    0.601295
C      4.996259    0.190941   -0.459900
C     -0.070798    0.147692    0.498910
C      2.324315    0.821187    0.045383
C      0.948239    1.208765    0.320266
N     -2.517424   -0.063818    0.768456
O      0.683830    2.432120    0.396620
H      6.530042   -0.339685   -1.810111
H      6.584563   -1.147801   -0.224242
H      7.117408    0.610839   -0.374803
H      1.322677   -0.502941    2.082103
H      0.213726   -1.746955    1.436755
H     -0.361017   -0.454425    2.576185
H     -5.561066   -0.870309   -1.492380
H     -5.688301   -0.865750    0.290153
H     -5.333241    1.321579   -0.418131
H     -3.791255    0.861257   -1.324204
H     -4.201613   -2.579041    0.246052
H     -3.754917   -2.269299   -1.441183
H      4.356716   -1.816888   -0.475886
H      5.381668    2.291321   -0.393987
H      2.011063   -1.292977   -0.042933
H      3.011443    2.833146    0.053146
H     -4.400512    0.409944    1.654235
H     -3.472752    1.791422    1.037418
H     -1.999258   -2.041018    0.520130
H     -1.916988   -1.047711   -0.945833
H     -1.558585    1.429478   -0.290760
H     -1.368890    1.502210    1.481369
H     -0.015522   -0.473667   -0.443659
