32

C     -2.894934    3.262984   -0.106070
C     -4.060979   -0.758162   -0.391978
C     -3.153471   -1.744341   -0.120235
C     -3.656541    0.567083   -0.291980
C     -1.876116   -1.405311    0.241591
C      0.958670   -0.305568    1.024688
C      2.902500   -1.664994    0.640093
C      1.609815   -1.189967    0.008394
C     -2.375770    0.907460    0.070640
C     -1.443918   -0.100729    0.349428
C      4.124822    0.337682   -0.016663
N      4.555081   -0.165155   -1.121787
O      1.924858   -0.474044   -1.152276
O      4.127216    1.729035    0.158436
O     -1.976251    2.228457    0.169278
O     -0.205868    0.313814    0.697440
O      3.678796   -0.540519    0.950016
H     -3.620200    3.416657    0.728565
H     -3.438551    3.071036   -1.073561
H     -2.291384    4.194597   -0.222631
H     -5.067243   -1.016051   -0.677125
H     -3.391407   -2.807321   -0.175671
H     -4.373114    1.348844   -0.506442
H     -1.152896   -2.187528    0.466209
H      0.836999   -0.901346    1.955845
H      1.721445    0.491747    1.274425
H      2.664634   -2.214395    1.598054
H      3.447844   -2.353457   -0.039244
H      1.049960   -2.065317   -0.308606
H      4.562868   -1.185175   -1.272427
H      1.875116   -1.016714   -1.959412
H      4.938020    2.226700   -0.240311
