32

C      4.409216   -0.798456   -1.454472
C      2.663796    1.422553    1.820055
C      1.304318    1.536789    1.867921
C      3.229015    0.716351    0.779844
C      0.531798    0.942693    0.874351
C     -0.944320   -0.489676   -1.428237
C     -3.208719   -1.329064   -0.830929
C     -1.735748   -1.249524   -0.404562
C      2.493124    0.121487   -0.210886
C      1.097394    0.236902   -0.164005
C     -3.672261    0.841269    0.117907
N     -3.759483    0.350206    1.288102
O     -1.244341   -2.570133   -0.261772
O     -3.560628    2.221472   -0.075059
O      3.053828   -0.584255   -1.250831
O      0.387436   -0.362101   -1.153717
O     -3.689202   -0.012181   -0.970554
H      4.537227   -1.870055   -1.786808
H      5.054413   -0.670725   -0.588939
H      4.813484   -0.154617   -2.276810
H      3.283373    1.869530    2.571210
H      0.822018    2.088736    2.677062
H      4.310381    0.648792    0.777380
H     -0.533270    1.087170    0.969677
H     -1.123989   -1.024884   -2.415151
H     -1.483632    0.478306   -1.578364
H     -3.749966   -1.865284   -0.026739
H     -3.288842   -1.892921   -1.769132
H     -1.741785   -0.821062    0.597066
H     -3.748839    0.966064    2.110282
H     -0.582704   -2.700296   -0.982045
H     -3.923089    2.866915    0.613107
