42

C      3.941452    0.925501   -1.072087
C     -2.794668   -3.685757   -0.328178
C     -2.995122   -2.458489   -0.920975
C     -1.913498   -3.825247    0.717792
C     -2.311901   -1.346922   -0.472355
C     -1.243042   -2.688805    1.144815
C     -2.125726    1.796454    0.809079
C     -0.598062    1.338270   -0.909758
C     -2.555738    2.922163    0.152184
C     -1.029053    2.486177   -1.590476
C      2.331671    1.416088    0.642456
C      2.849107   -0.805416    0.184196
C      1.335787    0.825574    1.578316
C      1.397969   -1.286499    0.371687
C     -1.419581   -1.455933    0.576917
C     -1.127721    0.958869    0.302350
C     -2.008605    3.281969   -1.062854
C     -0.706277   -0.252325    1.057039
Cl    -2.574848    4.724901   -1.882573
N      2.767766    0.499461   -0.386289
N      0.696545   -0.349809    1.134627
H      4.134357    0.210712   -1.898425
H      4.849514    0.956525   -0.452983
H      3.720464    1.899969   -1.558925
H     -3.324264   -4.582879   -0.665653
H     -3.691044   -2.362494   -1.742579
H     -1.724734   -4.750968    1.207756
H     -2.508553   -0.416250   -0.972758
H     -0.559539   -2.787946    1.969544
H     -2.570932    1.526120    1.772074
H      0.174702    0.722000   -1.346012
H     -3.331941    3.570394    0.549962
H     -0.591928    2.753411   -2.538075
H      3.236903    1.736415    1.216649
H      1.924995    2.302299    0.137820
H      3.376523   -1.529834   -0.483917
H      3.361221   -0.818985    1.183232
H      1.792107    0.728225    2.607910
H      0.528522    1.600648    1.746086
H      0.979004   -1.375196   -0.645562
H      1.407804   -2.326581    0.776603
H     -1.099635   -0.075810    2.113758
