35

C     -4.201937    0.550602    0.633607
C     -2.555562    1.256001   -1.003518
C     -2.899577   -1.125246   -0.556550
C      2.088145   -0.294045   -1.177405
C      2.368179   -0.326302    1.194657
C     -0.533494    0.569579    0.852081
C      1.577576   -0.419882    0.078034
C      3.424216   -0.068212   -1.338770
C      3.738008   -0.095200    1.040286
C      0.112522   -0.666096    0.284518
C      4.221704    0.026762   -0.230527
C     -2.804791    0.218594    0.064172
Cl     4.127357    0.097549   -2.946142
Cl     4.781614    0.030939    2.456446
N      5.631664    0.264136   -0.401539
N     -1.905675    0.380146    1.149659
O      0.030294   -1.718727    1.215728
H     -4.093648    1.434030    1.266236
H     -4.960198    0.589873   -0.148403
H     -4.434128   -0.313531    1.311443
H     -2.136132    2.191213   -0.572449
H     -3.535012    1.506421   -1.507154
H     -1.876590    0.893889   -1.784668
H     -2.406885   -1.930651    0.025465
H     -2.524159   -1.189768   -1.599441
H     -3.977025   -1.473539   -0.615710
H      1.443116   -0.371639   -2.045240
H      1.961441   -0.426029    2.186417
H     -0.333961    1.445850    0.203376
H     -0.016999    0.815443    1.828487
H     -0.341870   -0.954552   -0.673028
H      6.260201   -0.541253   -0.205779
H      5.942963    1.206349   -0.705215
H     -2.271681    0.991287    1.915577
H      0.100325   -2.553991    0.687745
