30

C      2.748116   -0.363168    1.618897
C      2.598762    1.567994    0.140583
C      2.946753   -0.645487   -0.809187
C     -2.987526   -1.633276   -0.219174
C     -2.235881    0.350546   -1.933311
C     -2.130907   -0.521195    0.285197
C     -2.908171    0.519591    1.008763
C      0.028894    0.228600   -0.824940
C      2.230185    0.101355    0.274199
N     -1.370239    0.021478   -0.803770
O     -2.837697    1.697359    0.632840
O     -3.708931    0.206525    2.092126
O      0.556118    0.713514   -1.849748
O      0.834856   -0.086645    0.248904
S     -3.203260   -1.212070   -1.993710
H      2.062271   -1.099884    2.103503
H      2.919237    0.478644    2.321856
H      3.728903   -0.906901    1.507717
H      3.650677    1.592702   -0.216156
H      2.585163    2.095259    1.109204
H      1.991820    2.087620   -0.605343
H      2.202965   -1.325870   -1.297156
H      3.389773    0.016773   -1.578048
H      3.745610   -1.287185   -0.383815
H     -4.014984   -1.495054    0.228248
H     -2.590259   -2.636126   -0.081605
H     -2.886036    1.201521   -1.724019
H     -1.666023    0.402356   -2.865632
H     -1.418501   -0.952498    1.016119
H     -4.261685    0.883524    2.597456
