42

C      3.634219    0.484744   -2.071820
C     -3.402463   -1.369286   -1.688073
C      3.589160   -0.842740   -1.343398
C     -2.083856   -1.189819   -1.063369
C      3.615956   -0.537640    2.443127
C      4.036822   -0.703427    1.124274
C      2.269971   -0.338751    2.651713
C     -0.961740    0.097871    2.654222
C     -2.285329    0.541433    2.036930
C     -1.933465    1.328983   -0.720593
C      3.138699   -0.669232    0.064115
C      1.386595   -0.307400    1.588762
C      0.012155   -0.124913    1.574482
C     -3.216111    1.809760   -1.216127
C      1.803606   -0.471145    0.286361
C     -0.380800   -0.181332    0.272048
C     -1.817765   -0.034254   -0.173126
N      0.724536   -0.392349   -0.494469
O     -4.296072    1.223634   -1.100114
O     -3.297607    3.060546   -1.904448
O     -2.632171   -0.224630    0.958870
H      3.136335    0.421667   -3.046250
H      4.677045    0.808725   -2.260282
H      3.162751    1.281593   -1.451461
H     -4.278813   -1.385796   -1.010258
H     -3.403604   -2.460282   -2.081973
H     -3.570696   -0.811174   -2.641731
H      4.610309   -1.263890   -1.356206
H      2.896544   -1.518650   -1.896463
H     -1.325421   -1.229102   -1.923063
H     -1.834733   -2.169989   -0.531676
H      4.353396   -0.575549    3.223699
H      5.081356   -0.862378    0.894638
H      1.890287   -0.205866    3.648730
H     -0.677350    0.930823    3.352613
H     -1.083074   -0.804500    3.266591
H     -2.340867    1.630072    1.889261
H     -3.045930    0.318365    2.834340
H     -1.603075    2.103526    0.053353
H     -1.124465    1.499807   -1.521785
H      0.726994   -0.480901   -1.537815
H     -4.151326    3.613447   -1.783627
