45

C     -4.941931   -1.047994   -0.461460
C     -6.545519    0.748200   -0.806704
C      6.521468   -0.057128   -1.030454
C      5.011325    1.332718    0.273985
C     -0.043222   -1.010761    3.360942
C     -1.166111   -0.490375    2.751806
C      1.112211   -1.076441    2.609579
C     -3.699075    1.627812   -0.669361
C      3.713512   -0.894216   -1.360505
C     -5.568830    0.195620    0.178506
C      5.550393   -0.047640    0.126034
C     -1.137340   -0.053318    1.446172
C      1.144658   -0.640609    1.304535
C     -4.482957    1.187194    0.539606
C      4.504200   -1.089911   -0.120865
C     -2.354845    0.500832    0.814986
C      2.392711   -0.715250    0.503866
N      0.016367   -0.145199    0.773091
N     -3.482429    0.618523    1.390589
N      3.515865   -1.169201    0.918090
O     -2.473127    0.972827   -0.472867
O      2.520542   -0.301543   -0.815516
H     -4.326681   -0.676463   -1.305897
H     -5.773856   -1.699462   -0.788255
H     -4.357321   -1.601531    0.295071
H     -6.973732    1.723929   -0.519907
H     -7.412839    0.032377   -0.842999
H     -6.113650    0.731336   -1.825563
H      6.120275   -0.689938   -1.840441
H      6.730646    0.965183   -1.406669
H      7.463905   -0.558709   -0.683532
H      4.952979    1.817855   -0.718457
H      4.066588    1.387694    0.849161
H      5.756221    1.932573    0.865909
H     -0.085176   -1.352254    4.396981
H     -2.116507   -0.410477    3.293912
H      2.016901   -1.481463    3.058493
H     -4.179685    1.349012   -1.628225
H     -3.599784    2.740795   -0.617775
H      3.495269   -1.886043   -1.809625
H      4.151127   -0.257860   -2.125638
H     -6.038486   -0.147973    1.120818
H      6.077464   -0.304687    1.079743
H     -4.970730    2.036075    1.054620
H      5.009208   -2.094112   -0.143749
