33

C      2.969180    1.811826   -0.429327
C      3.101622   -0.081161    1.088478
C      2.981516   -0.453117   -1.316903
C     -3.102022   -1.327877    1.291934
C     -3.351477   -0.095435    0.447098
C     -1.906197   -1.929894    0.553525
C     -1.857094    1.126604   -1.066020
C     -1.943493    0.434576    0.275495
C      0.321791   -0.778496    0.174709
C      2.466199    0.401726   -0.196590
N     -1.101991   -0.745782    0.325131
O     -2.693294    2.243576   -1.022129
O      0.953628   -1.870645    0.236402
O      1.079708    0.351166   -0.042081
H      2.625190    2.234755   -1.373529
H      4.091415    1.738293   -0.421114
H      2.699171    2.437817    0.453373
H      3.438825    0.774499    1.714331
H      3.927177   -0.786962    0.870314
H      2.344148   -0.660524    1.649094
H      3.123630   -1.514734   -1.012340
H      4.000994   -0.076016   -1.575907
H      2.383827   -0.362834   -2.249900
H     -2.732611   -1.038309    2.294278
H     -3.961696   -2.015281    1.315237
H     -3.745988   -0.458441   -0.528491
H     -4.022338    0.631927    0.942731
H     -1.371758   -2.671684    1.177258
H     -2.215846   -2.347173   -0.432672
H     -0.824613    1.455265   -1.291643
H     -2.271133    0.461159   -1.849860
H     -1.759318    1.127086    1.113005
H     -3.647154    1.984089   -1.113886
