36

C      5.730025   -0.854539    0.306026
C      5.042549   -0.667865    1.481735
C      5.233031   -0.339361   -0.859407
C     -3.966999   -1.263373   -0.275932
C     -2.668034   -1.857224    0.155781
C      3.839968    0.042935    1.501618
C      4.042739    0.361810   -0.827178
C     -3.747822   -0.041719   -1.107705
C     -1.456810   -1.220589   -0.430073
C      2.075450    1.321258    0.283002
C      3.327862    0.567499    0.334035
C     -2.782872    0.861296   -0.327607
C     -3.318924    1.158536    1.025465
C     -0.342992    1.003082   -0.031798
N     -1.493433    0.215572   -0.259128
O     -2.646264    0.842008    2.019137
O     -4.557414    1.781142    1.094612
O     -0.481248    2.242321    0.103532
O      0.939982    0.507710    0.054223
H      6.679553   -1.409388    0.256554
H      5.473281   -1.092658    2.376751
H      5.790303   -0.495688   -1.785888
H     -4.533210   -0.935828    0.641531
H     -4.603894   -1.985466   -0.849901
H     -2.666458   -2.937141   -0.157286
H     -2.561856   -1.889141    1.268125
H      3.319472    0.175462    2.438454
H      3.691389    0.749656   -1.776387
H     -4.684824    0.570874   -1.208917
H     -3.282369   -0.236236   -2.079581
H     -1.281505   -1.506335   -1.493269
H     -0.570681   -1.588228    0.159907
H      2.123197    2.046442   -0.558783
H      1.983019    1.914272    1.214626
H     -2.759260    1.819947   -0.889240
H     -4.884954    2.138960    1.975564
