38

C     -4.498383   -1.958556    0.121393
C     -5.168322    0.431194    0.389968
C      3.603665   -2.231945   -0.356901
C      4.779524   -1.594249   -0.009133
C      2.418688   -1.526587   -0.346878
C      3.905323    1.741147    0.750889
C      5.263152    1.786760    0.966837
C     -2.321172    0.943989   -0.516886
C     -0.005015    0.166476   -0.264501
C     -4.144372   -0.518789   -0.205171
C     -0.922898    1.369278   -0.073907
C      3.616914    0.446661    0.361832
C      4.773599   -0.264651    0.345570
C      2.435342   -0.196223    0.011633
N      5.769840    0.570068    0.717883
N     -2.862849   -0.133739    0.198028
O     -0.544921    2.438493   -0.893097
O      1.293173    0.574345    0.045114
H     -4.502942   -2.115435    1.195966
H     -5.510578   -2.127814   -0.334527
H     -3.739957   -2.596392   -0.374661
H     -5.724732   -0.067301    1.210858
H     -5.899418    0.719666   -0.381758
H     -4.648857    1.324416    0.786245
H      3.580713   -3.265810   -0.637061
H      5.741709   -2.123446   -0.006967
H      1.471944   -1.962553   -0.605805
H      3.194498    2.524416    0.853985
H      5.796250    2.677537    1.284086
H     -2.968366    1.867298   -0.451707
H     -2.199056    0.707943   -1.623101
H     -0.093999   -0.177448   -1.334760
H     -0.387166   -0.618166    0.428110
H     -4.258117   -0.461755   -1.332226
H     -0.940929    1.689746    0.963934
H      6.777061    0.301636    0.796890
H     -2.372689   -0.585373    0.902511
H     -0.706657    2.245166   -1.837716
