46

C     -3.512368    1.726972   -0.354762
C     -3.468139   -0.784294    1.521065
C     -0.546512   -1.942253   -1.240284
C     -2.944099    0.667778   -1.259253
C     -2.971950   -1.306779    0.195214
C      1.253202    3.294460   -1.744227
C      2.195221   -2.796164    2.352062
C      2.595713    3.543687   -1.897175
C      3.559322   -2.697108    2.303369
C      0.854480    2.184250   -1.039424
C      1.464428   -1.832777    1.664544
C      3.489826    2.672453   -1.341122
C      4.170260   -1.686045    1.603444
C     -0.218689    0.016798    0.355051
C     -0.919340   -0.556783   -0.820105
C      1.728184    1.272467   -0.456119
C      2.031029   -0.798471    0.949448
C      3.049030    1.564931   -0.638867
C      3.402345   -0.762594    0.942770
N     -2.331036   -0.366884   -0.572041
N      1.203064    0.173534    0.280331
S      4.279205    0.478427    0.061014
H     -3.871409    2.612087   -0.964261
H     -2.814436    2.085446    0.420360
H     -4.403794    1.301917    0.143355
H     -4.580782   -0.764349    1.595456
H     -3.083378    0.222027    1.753918
H     -3.046709   -1.468277    2.320833
H      0.501196   -1.923697   -1.647112
H     -1.189102   -2.216491   -2.098491
H     -0.648108   -2.699724   -0.439623
H     -2.276736    1.122419   -2.043193
H     -3.811594    0.279814   -1.860452
H     -3.946459   -1.584048   -0.361340
H     -2.481803   -2.306919    0.280995
H      0.528622    3.989914   -2.185711
H      1.685338   -3.583720    2.898605
H      2.954742    4.423535   -2.450386
H      4.173798   -3.439259    2.836535
H     -0.207568    2.066899   -0.957469
H      0.393794   -1.957245    1.713168
H      4.566454    2.843352   -1.447030
H      5.268747   -1.646577    1.597813
H     -0.721353    1.026029    0.537103
H     -0.606514   -0.486694    1.271063
H     -0.746123    0.037956   -1.779069
