40

C      2.882378   -0.121651   -1.476799
C      2.749917   -0.709806    1.402388
C      2.655176    1.481890    0.687383
C     -0.961472    3.484769    0.873011
C     -1.564582   -3.515394   -1.371569
C     -2.068587    3.450667    1.685679
C     -2.680951   -3.768752   -0.646809
C     -0.576459    2.365169    0.151006
C     -0.960092   -2.248453   -1.342490
C     -2.770884    2.273563    1.751808
C     -3.186434   -2.737106    0.109122
C      0.391488    0.187713   -1.342458
C      1.626909   -0.223092   -0.647777
C     -1.278587    1.157478    0.206929
C     -1.474872   -1.206754   -0.576204
C     -2.382030    1.172211    1.034329
C     -2.599701   -1.521364    0.132245
N      1.828518    0.248880    0.709387
N     -0.827838    0.069830   -0.554626
S     -3.360687   -0.308732    1.162670
H      3.743419   -0.558836   -0.957659
H      3.085738    0.917499   -1.838673
H      2.657441   -0.682830   -2.433988
H      3.790011   -0.493278    1.173985
H      2.497320   -0.783942    2.466227
H      2.486055   -1.685501    0.947893
H      3.733106    1.215982    0.889721
H      2.550658    2.030636   -0.246348
H      2.337361    2.057800    1.579278
H     -0.373580    4.384487    0.784448
H     -1.142802   -4.308411   -1.976492
H     -2.394091    4.308469    2.263994
H     -3.147650   -4.746171   -0.667918
H      0.283712    2.414028   -0.495316
H     -0.092330   -2.185495   -1.946576
H     -3.661910    2.205564    2.390407
H     -4.095403   -2.984187    0.683121
H      0.509340    1.181544   -1.839479
H      0.243316   -0.445072   -2.257699
H      1.549081   -1.373351   -0.466151
