29

C     -4.591585    0.563499   -0.097481
C      4.043707    1.432969    0.205769
C      0.072164   -1.492245   -0.602880
C      1.149549   -2.215095   -1.061374
C      1.498642    0.274681    0.007754
C     -2.244199    0.054300   -0.113833
C      0.217482   -0.233217   -0.058321
C      2.434062   -1.668774   -0.978544
C     -0.927867    0.565028    0.442332
C      2.597970   -0.417931   -0.439983
N     -3.285871    0.944769    0.365299
O      3.518473   -2.399412   -1.441393
O     -0.759418    1.866510   -0.039104
O      3.855261    0.150300   -0.343948
H     -5.310130    0.751860    0.726028
H     -4.643914   -0.503889   -0.425103
H     -4.874190    1.254725   -0.923505
H      3.562351    2.236726   -0.376648
H      3.655074    1.452969    1.247370
H      5.146334    1.604727    0.250748
H     -0.906910   -1.940858   -0.680413
H      1.065841   -3.196219   -1.489443
H      1.601908    1.271205    0.440235
H     -2.248134   -0.050945   -1.198978
H     -2.404505   -0.975122    0.313432
H     -0.969028    0.506330    1.530522
H     -3.218516    0.995133    1.403643
H      3.394299   -3.315675   -1.835402
H     -1.428852    2.483652    0.336693
