41

C     -5.039569    0.408382   -0.639376
C      5.958482   -0.428598   -1.322533
C      4.894387   -1.233826   -1.063276
C      5.985361    0.884565   -0.910955
C      3.815545   -0.709449   -0.366797
C      4.887511    1.379983   -0.214519
C     -3.235278   -1.819250   -0.143595
C     -3.296537   -1.299326    1.262058
C     -1.424583   -0.252469   -0.880705
C     -1.985118    0.760340    1.349774
C      3.791172    0.593081    0.066445
C     -2.875025   -0.598706   -0.965904
C     -3.354611    0.215369    1.072560
C     -0.947350    0.089577    0.492253
C      2.678386    1.200926    0.808321
C      1.466342    0.392069    0.909179
N     -3.643924    0.433345   -0.327664
O      2.430237    2.451118    0.208587
O      1.466030   -0.737884    1.442666
O      0.247794    0.841094    0.414559
H     -5.334373    1.470496   -0.887787
H     -5.276214   -0.178000   -1.569089
H     -5.689151    0.109423    0.206801
H      6.844215   -0.775730   -1.867377
H      4.904406   -2.278258   -1.405969
H      6.835104    1.535386   -1.115498
H      2.993649   -1.354967   -0.175833
H      4.903196    2.407770    0.110225
H     -4.250502   -2.146704   -0.450570
H     -2.552361   -2.661965   -0.289471
H     -4.203008   -1.661991    1.810581
H     -2.429445   -1.599662    1.862667
H     -1.217510    0.534638   -1.631311
H     -0.851192   -1.157966   -1.234179
H     -2.018525    1.852323    1.233969
H     -1.745237    0.552491    2.411431
H     -3.140680   -0.762863   -2.015457
H     -4.108366    0.689235    1.701941
H     -0.677345   -0.866014    1.006098
H      3.066343    1.448177    1.832031
H      2.127744    2.273839   -0.724400
