41

C     -4.154189    0.580127    1.987358
C      6.139286    0.919356    0.177922
C      5.030714    1.155681    0.970672
C      6.093531   -0.064197   -0.771661
C      3.878160    0.405892    0.810415
C      4.938330   -0.793369   -0.910182
C     -4.320681   -0.583763   -0.638096
C     -3.889672    0.832027   -0.960272
C     -1.998055   -1.399245   -0.293904
C     -1.427352    0.956649   -0.501127
C      3.811929   -0.589136   -0.140165
C     -3.290771   -1.006042    0.391514
C     -2.816072    1.167372    0.075891
C     -0.916151   -0.360592   -0.006235
C      2.654157   -1.441494   -0.398492
C      1.402929   -1.027573    0.225171
N     -3.074152    0.204897    1.131599
O      2.473624   -1.504113   -1.788585
O      1.229228   -0.886751    1.465376
O      0.295927   -0.758160   -0.562758
H     -5.123578    0.142061    1.744096
H     -4.207571    1.698267    2.109966
H     -3.892166    0.212361    3.022487
H      7.059604    1.494264    0.282364
H      5.107646    1.941183    1.708658
H      6.973995   -0.251194   -1.400600
H      3.021563    0.597793    1.431629
H      4.962730   -1.570602   -1.691106
H     -4.264474   -1.235736   -1.537887
H     -5.345539   -0.632912   -0.219953
H     -3.491915    0.925222   -1.978668
H     -4.786286    1.473256   -0.818517
H     -1.673775   -2.414810   -0.049356
H     -2.149416   -1.369068   -1.409627
H     -0.821867    1.821548   -0.189932
H     -1.558131    0.914948   -1.606093
H     -3.667240   -1.831193    1.035168
H     -2.981641    2.214548    0.402985
H     -0.872802   -0.292393    1.113944
H      2.955245   -2.485147   -0.083285
H      2.694898   -0.597492   -2.130716
