26

C     -2.582545   -0.089739   -1.102616
C     -1.227251    0.067826    0.817347
C     -3.642483   -0.546823   -0.326263
C     -2.276829   -0.387872    1.607116
C      2.661471   -0.493541    0.577075
C      3.842836    0.436280    0.753026
C      0.882366   -0.301408   -1.460737
C     -1.363303    0.223285   -0.543993
C     -3.489870   -0.696224    1.030332
C     -0.233305    0.705674   -1.337415
C      1.507578    1.455798   -0.176523
Br    -4.948923   -1.327871    2.115617
N      0.427211    1.832246   -0.719171
N      1.739717    0.076590   -0.334368
S      2.940641    2.040610    0.769971
H     -2.731709    0.016826   -2.159310
H     -0.288104    0.301995    1.294999
H     -4.604238   -0.796016   -0.751375
H     -2.162859   -0.507554    2.675497
H      3.089558   -1.436007    0.174499
H      2.226933   -0.762908    1.560795
H      4.569562    0.389450   -0.054353
H      4.259583    0.283816    1.768673
H      0.537548   -1.343150   -1.390108
H      1.395589   -0.150660   -2.416907
H     -0.529172    1.009377   -2.371807
