36

C      3.510262   -1.383860   -1.180346
C      0.928365   -2.583927   -1.037965
C      1.739655    2.661200    1.071432
C     -3.196913   -0.713718    1.324228
C     -0.907317    1.391533    1.201723
C     -2.052880    1.170872    0.200953
C      2.366374   -0.645217   -0.554342
C      1.113104   -1.211070   -0.477924
C      1.484962    1.328475    0.550311
C      0.262209    0.761748    0.618477
C      2.530729    0.623660   -0.034872
C      0.054194   -0.529090    0.100846
C     -3.082663   -0.531497   -1.140226
C     -2.342228   -0.313225    0.130132
O      3.812542    1.163258   -0.129808
O     -2.621662   -1.352015   -1.963212
O     -4.257420    0.130142   -1.454884
O     -1.193103   -1.123076    0.164022
H      3.221304   -1.847010   -2.136466
H      4.349496   -0.680815   -1.258772
H      3.794530   -2.168918   -0.431474
H      1.452185   -3.277573   -0.333537
H      1.306509   -2.687967   -2.054812
H     -0.152520   -2.868959   -0.963182
H      2.481619    2.569718    1.898738
H      0.897915    3.297003    1.303210
H      2.306348    3.219877    0.263811
H     -3.746708   -1.634177    1.038956
H     -3.870736    0.110755    1.647031
H     -2.491947   -0.997857    2.147932
H     -1.211677    0.759039    2.089418
H     -0.855640    2.399934    1.556235
H     -2.971407    1.676537    0.510766
H     -1.683231    1.481309   -0.799018
H      3.974377    2.075986    0.235472
H     -4.948626   -0.271074   -2.102852
