41

C      0.655271   -2.282163    0.235768
C      2.804196    0.676160    1.000524
C      4.120215    0.269867    1.009755
C     -2.494890   -1.120889   -1.394649
C     -1.582548   -2.018594   -0.600662
C      0.562007    0.863219   -0.110370
C      2.487253   -0.217927   -1.149514
C     -3.966775    0.696966   -0.626115
C     -2.029664    1.604447    1.062356
C      1.956599    0.447919   -0.066225
C     -2.762165    0.072471   -0.549834
C     -1.772162    0.491234    0.276164
C     -0.430507   -0.135346    0.415501
C      4.612028   -0.397039   -0.102051
C      3.802411   -0.644499   -1.184768
C     -4.237545    1.809743    0.153210
C     -3.243324    2.264204    1.010577
N     -0.378008   -1.407414   -0.179836
O      5.945931   -0.823501   -0.124384
O      4.304886   -1.314923   -2.297001
O     -5.454178    2.453462    0.086807
O     -3.468851    3.366252    1.803227
H      0.167392   -3.137107    0.791725
H      1.213011   -2.761124   -0.595358
H      1.326492   -1.814717    0.982034
H      2.382529    1.197576    1.844698
H      4.788343    0.444111    1.838330
H     -2.095540   -0.853834   -2.380676
H     -3.459416   -1.657123   -1.515430
H     -2.155932   -2.343708    0.299962
H     -1.345614   -2.917546   -1.190493
H      0.276444    1.118550   -1.148214
H      0.443498    1.794210    0.483154
H      1.874080   -0.431547   -2.026276
H     -4.740332    0.338911   -1.296841
H     -1.270444    1.971879    1.733775
H     -0.283987   -0.264068    1.528098
H      6.567735   -0.658431    0.653069
H      5.255631   -1.617269   -2.309462
H     -5.638343    3.257080    0.655161
H     -2.735728    3.680509    2.418356
