26

C      2.981815   -1.368905   -0.747185
C      2.161298   -0.728580   -1.650118
C      2.597628   -1.321022    0.582035
C      1.009798   -0.071630   -1.239894
C      1.453818   -0.669104    0.994554
C     -1.843944   -0.006773   -0.044854
C     -0.610166    2.101416    0.007280
C      0.633979   -0.029115    0.088984
C     -0.612076    0.681801    0.515525
C     -1.941142   -1.409741    0.402061
N     -1.847982    2.711139    0.497967
O     -2.291638   -1.664877    1.578116
O     -1.656420   -2.468146   -0.438777
H      3.884382   -1.884099   -1.063447
H      2.427058   -0.742431   -2.700948
H      3.239476   -1.823545    1.290936
H      0.376976    0.424296   -1.956227
H      1.167120   -0.643661    2.054540
H     -2.722703    0.619040    0.249719
H     -1.822145    0.014574   -1.159935
H     -0.564816    2.170438   -1.084400
H      0.251316    2.674261    0.417713
H     -0.666218    0.712618    1.620930
H     -1.922736    2.404891    1.511728
H     -1.802360    3.753449    0.429370
H     -1.880321   -3.436297   -0.155675
