39

C     -4.236004   -0.296089    0.566236
C     -0.501839   -1.144851   -2.068920
C      2.171991   -0.472476    4.661637
C      4.090101   -1.368989   -0.496038
C     -0.011302    0.924264    1.322946
C      0.709790    0.463821    2.402788
C      1.678514    0.006184   -0.079350
C     -0.225590    1.147304   -1.117044
C     -3.312193    0.385863   -0.408865
C      0.493043    0.684542    0.066494
C      1.894882   -0.213404    2.235055
C      2.418238   -0.464331    0.983582
C     -1.770493    0.702513   -2.925732
C     -1.212770    0.151198   -1.664843
N     -2.269841   -0.190856   -0.784668
O     -3.672538    1.636108   -0.844263
O     -2.995182    0.766372   -3.201446
O     -0.924614    1.208595   -3.931295
O      2.630230   -0.682764    3.332953
O      3.616592   -1.149657    0.826108
H     -3.991016    0.149734    1.561073
H     -4.054931   -1.393232    0.574540
H     -5.266376   -0.035693    0.247531
H     -1.130563   -1.774858   -2.694052
H     -0.086279   -1.644292   -1.169513
H      0.370810   -0.821940   -2.678801
H      1.861491    0.594436    4.731203
H      3.003653   -0.705557    5.360622
H      1.287496   -1.090676    4.903077
H      4.934972   -2.081290   -0.517136
H      3.256628   -1.887272   -1.051816
H      4.278917   -0.431690   -1.033904
H     -0.959527    1.465590    1.468006
H      0.320350    0.647812    3.397502
H      2.108652   -0.201542   -1.071613
H      0.559306    1.383144   -1.897516
H     -0.747324    2.106737   -0.967011
H     -3.064366    2.395385   -1.014721
H     -1.252908    1.231858   -4.887908
