33

C     -2.226930    4.199586   -0.558723
C      4.111907   -1.762972    0.755526
C     -2.860600   -2.595025   -0.249495
C      2.989251   -1.666813    1.519142
C      4.229968   -1.049477   -0.429234
C     -2.490930   -1.882690   -1.373870
C     -2.418226   -2.189303    1.000834
C      1.939505   -0.835775    1.101970
C      3.188939   -0.242635   -0.817244
C     -1.683878   -0.769769   -1.259409
C     -1.619648   -1.079975    1.067676
C     -1.499177    3.095724    0.118789
C      2.031652   -0.121072   -0.064997
C     -1.231528   -0.347246   -0.026000
C      0.954532    0.719176   -0.516054
C     -0.376543    0.889671    0.074360
O     -1.223410    3.117392    1.328073
O      1.190956    1.414688   -1.579877
O     -1.082158    1.967040   -0.567206
H     -1.792311    5.172592   -0.262264
H     -3.300615    4.234868   -0.288450
H     -2.054903    4.100954   -1.649311
H      4.921729   -2.395869    1.064832
H     -3.485970   -3.458549   -0.332069
H      2.854775   -2.203563    2.447468
H      5.105710   -1.122111   -1.028004
H     -2.849959   -2.218658   -2.349274
H     -2.676661   -2.707423    1.903802
H      1.070363   -0.757266    1.716655
H      3.277246    0.324869   -1.755409
H     -1.420737   -0.241622   -2.182279
H     -1.286357   -0.781017    2.078237
H     -0.285992    1.192270    1.111806
