25

C      2.828193   -0.314062    0.531984
C     -2.430855   -0.751147    0.339941
C     -0.997780    2.193471   -0.414795
C     -0.385055   -1.296416   -0.887896
C      0.740213    0.886861    0.377413
C      1.336927   -0.425451    0.789658
C     -1.265464   -0.175727   -0.473198
C      0.759041   -1.525774    0.006145
N     -0.658021    0.901616    0.206954
O      1.229844   -2.637980    0.096241
H      3.193622    0.519372    1.179729
H      3.337360   -1.269578    0.734598
H      2.923777   -0.001425   -0.544443
H     -3.112457   -1.336399   -0.277958
H     -2.984786    0.111894    0.764455
H     -2.057094   -1.412866    1.144044
H     -1.183373    2.920870    0.383572
H     -1.822272    2.088487   -1.139158
H     -0.112517    2.542959   -1.022308
H     -0.993228   -2.244772   -0.901580
H     -0.037275   -1.194149   -1.957311
H      1.230207    1.198036   -0.563786
H      1.016525    1.632179    1.159609
H      1.198632   -0.638368    1.875318
H     -1.754166    0.228369   -1.407229
