34

C      4.776533   -0.205585   -0.829110
C     -3.146424   -2.514784   -1.028283
C     -3.337833   -1.246549   -1.557024
C     -2.221915   -2.778938   -0.028307
C     -2.561704   -0.238817   -1.042992
C     -1.458414   -1.740098    0.464496
C      2.392157    0.241983   -1.506239
C      2.919353    0.001074    0.793025
C      1.064847    0.445231   -1.175550
C      1.572439    0.208775    1.106073
C      3.318215    0.020163   -0.523871
C     -1.625984   -0.459401   -0.043224
C      0.626389    0.433410    0.135656
C     -1.042718    0.901914    1.913237
C     -1.699678    2.708447    0.747939
C     -0.789813    0.652173    0.501419
N     -1.558935    2.078730    2.014367
N     -1.254127    1.882873   -0.135579
O     -0.823777    0.119102    3.046515
O     -2.229066    3.988042    0.546564
H      5.346201    0.476510   -0.187126
H      5.041241   -1.238838   -0.522151
H      4.981668   -0.097830   -1.896695
H     -3.735092   -3.350266   -1.398175
H     -4.072569   -1.072025   -2.342382
H     -2.101981   -3.776844    0.357050
H     -2.707147    0.756251   -1.452543
H     -0.735292   -1.917231    1.237809
H      2.726703    0.253104   -2.538944
H      3.650511   -0.176903    1.597415
H      0.317531    0.623736   -1.960211
H      1.311138    0.184609    2.164410
H     -0.703976    0.523361    3.955913
H     -2.238481    4.314621   -0.413482
