26

C     -2.151974    1.863305    0.892894
C     -2.992769    0.946496    1.465696
C     -1.126122    1.372835    0.110898
C     -2.805185   -0.423230    1.255968
C      1.176092   -0.155473   -1.627680
C     -0.301927   -1.999749   -0.703542
C      0.025960   -0.649385   -0.860013
C     -0.911424    0.018767   -0.116662
C     -1.780925   -0.880186    0.476691
C      2.443702    0.040806   -0.887523
C      2.382799    0.998162    0.212975
N     -1.374489   -2.088916    0.094187
O      2.973227   -1.183203   -0.428572
O      2.047886    2.194062    0.089653
O      2.724226    0.562533    1.515003
H     -2.283114    2.932059    1.041942
H     -3.810556    1.302394    2.083798
H     -0.491741    2.127044   -0.346802
H     -3.476081   -1.129264    1.712869
H      0.893484    0.839137   -2.077826
H      1.315767   -0.804972   -2.534132
H      0.229479   -2.820029   -1.155446
H      3.178226    0.482590   -1.637866
H     -1.845385   -2.965705    0.391080
H      2.853181   -1.878413   -1.101004
H      3.107662    1.298333    2.133413
