42

C     -4.156897   -0.552743    0.341206
C      3.783472   -3.721522   -0.479734
C     -0.261419   -2.738533   -0.662355
C      1.097631   -3.067125   -0.600860
C     -0.052922    2.883682   -1.454050
C     -0.400446    1.643133   -1.145075
C     -0.905386    1.008017    1.192847
C     -2.264442    0.783959    0.622286
C      2.006960    2.613584   -0.299787
C     -2.154688   -1.335521   -0.557203
C     -0.675803   -1.443064   -0.459215
C      0.902739    3.608392   -0.556354
C      2.025339   -2.089995   -0.335692
C      1.461479    1.438336    0.462088
C      0.289044   -0.506347   -0.198873
C      1.618083   -0.764173   -0.126374
C      0.127603    0.966447    0.056791
N     -2.703805   -0.570197    0.546793
O      0.347016    4.070312    0.604481
O      3.368566   -2.407490   -0.273307
O      2.360213    0.362036    0.150885
H     -4.525528   -1.576057    0.084505
H     -4.336505    0.082670   -0.567477
H     -4.686366   -0.091363    1.177606
H      4.854051   -3.855060   -0.318305
H      3.520841   -4.050354   -1.506641
H      3.254594   -4.443651    0.200593
H     -0.953198   -3.537706   -0.873075
H      1.387317   -4.105592   -0.767643
H     -0.453033    3.367394   -2.339861
H     -1.109104    1.113679   -1.828528
H     -0.790689    1.936238    1.774000
H     -0.654846    0.141626    1.857113
H     -2.986475    1.292173    1.336253
H     -2.460355    1.301006   -0.342156
H      2.338397    2.223638   -1.308666
H      2.876889    3.078202    0.212406
H     -2.416615   -0.951978   -1.541649
H     -2.568320   -2.358859   -0.456505
H      1.308261    4.457498   -1.193116
H      1.519709    1.636002    1.578207
H      1.068638    4.159306    1.277576
