21

C      3.204987   -0.465641    0.078357
C     -2.388961   -0.408630   -0.154275
C     -0.970845   -0.739464   -0.641112
C     -2.159345    0.603141    0.936646
C      1.225429    0.453112   -0.408063
C     -0.260475    0.523169   -0.272029
N     -0.714926    0.750307    1.067933
O      1.816779   -0.545106    0.322795
H      3.742095   -1.252440    0.645116
H      3.604841    0.526713    0.384435
H      3.411161   -0.584379   -1.018349
H     -2.876392    0.126164   -1.019788
H     -2.934188   -1.298400    0.161626
H     -0.646176   -1.595745    0.011223
H     -0.942022   -0.989641   -1.698763
H     -2.635632    0.287891    1.890142
H     -2.542689    1.623870    0.649248
H      1.454196    0.309788   -1.490336
H      1.638760    1.442604   -0.133332
H     -0.624333    1.323492   -0.951639
H     -0.402263   -0.090805    1.640165
