31

C      3.242338    0.810967    0.925356
C     -3.210277    1.451927    0.312040
C     -2.002520    1.592764   -0.330049
C     -3.498207    0.210112    0.844283
C      0.623794   -0.605692   -1.677671
C      1.670965   -0.979092    0.555558
C     -0.588397   -1.823581    0.041935
C      1.139220    1.277633   -0.155436
C      0.782766   -1.532460   -0.489782
C      0.147439    0.713796   -1.118325
C     -1.143820    0.520320   -0.418588
C     -2.632495   -0.836940    0.744301
N      1.942306    0.382632    0.541220
N     -1.441231   -0.671120    0.102534
O     -2.947025   -1.956684    1.251406
H      3.122544    1.508455    1.802911
H      3.916259   -0.013329    1.173138
H      3.678209    1.408507    0.102456
H     -3.899727    2.258199    0.400316
H     -1.720067    2.545459   -0.768843
H     -4.463697    0.119187    1.350778
H      1.585988   -0.475990   -2.191177
H     -0.132294   -1.023857   -2.358141
H      2.643618   -1.553702    0.522673
H      1.235854   -1.263521    1.558174
H     -0.524670   -2.319689    1.031102
H     -1.061639   -2.567517   -0.652514
H      1.793549    1.988018   -0.742509
H      0.579559    1.940752    0.549699
H      1.177755   -2.495906   -0.907322
H     -0.016097    1.390352   -1.999521
