36

C      1.314987    2.718749   -1.001285
C      0.192188    1.799503   -0.513882
C      4.040955   -1.282951   -0.815664
C      2.802060   -1.873411   -0.864129
C      4.163114   -0.014224   -0.303366
C      1.681738   -1.185904   -0.396014
C      3.044120    0.638434    0.149648
C     -2.541317   -1.111582    1.588833
C     -1.925948   -0.461990   -0.666664
C     -3.881868   -0.511081    1.229488
C     -3.146184   -1.401276   -0.750568
C      1.759891    0.081489    0.121758
C      0.660501    0.902536    0.628889
C     -0.441880    0.221638    1.287359
N     -1.560435   -0.421431    0.722874
O     -0.432090    0.181474    2.589535
O     -4.215327   -0.957939   -0.023363
H      2.122568    2.195915   -1.505204
H      1.665214    3.305884   -0.137656
H      0.814368    3.433335   -1.719813
H     -0.129874    1.227125   -1.405241
H     -0.642496    2.461362   -0.228537
H      4.895435   -1.848914   -1.190260
H      2.689912   -2.867214   -1.262643
H      5.149693    0.424091   -0.277800
H      0.704675   -1.647368   -0.413433
H      3.202047    1.627929    0.545812
H     -2.349980   -0.871025    2.651397
H     -2.479389   -2.180006    1.362445
H     -1.209312   -0.866128   -1.361504
H     -2.357618    0.524385   -1.006291
H     -3.738835    0.600322    1.185609
H     -4.642958   -0.700091    1.999015
H     -3.450361   -1.331687   -1.837233
H     -2.865560   -2.455931   -0.609484
H      1.107963    1.645980    1.359024
