24

C     -1.817143   -0.256109    1.093347
C      3.201334   -0.136538    0.446847
C      2.438994    0.968564    0.741932
C      2.576930   -1.252758   -0.069529
C      1.071069    0.954455    0.522482
C      1.233438   -1.243150   -0.276311
C      0.416240   -0.143660    0.008071
C     -1.565862    1.031096   -0.912198
C     -1.044630   -0.171731   -0.234739
N     -2.086548    1.076645   -2.075035
N     -1.362006   -1.375121   -0.968582
O     -1.495840    2.264616   -0.235752
H     -2.874004   -0.310723    0.819908
H     -1.645828    0.666325    1.685323
H     -1.472240   -1.139108    1.650712
H      4.265346   -0.180322    0.597015
H      2.948698    1.847332    1.151302
H      3.163444   -2.151744   -0.314801
H      0.541764    1.855523    0.779436
H      0.754477   -2.121019   -0.681311
H     -2.210441    0.264784   -2.697939
H     -2.283113   -1.327446   -1.450104
H     -1.250044   -2.236969   -0.392552
H     -1.504034    3.117057   -0.763934
