44

C     -3.088493    1.247429    0.717619
C     -3.389253   -0.677111    2.047226
C     -3.727431    2.003724    1.706918
C     -4.024810    0.075156    3.031385
C      3.282178   -0.634250   -1.250819
C      4.566110   -0.267416   -1.481139
C     -3.110097   -1.132888   -1.355655
C     -2.814745   -0.189549   -2.474964
C      3.373956    0.350981    0.894683
C     -0.613871   -0.917256   -1.931357
C      0.182837   -1.026214    0.413513
C      6.918955    1.153323    0.843039
C     -2.916796   -0.104470    0.886636
C     -0.902593   -0.449934   -0.527776
C     -4.200874    1.433458    2.868361
C      2.625147   -0.353963   -0.078351
C     -2.248901   -0.949993   -0.139524
C      5.279126    0.415128   -0.529362
C      4.673199    0.721930    0.661238
F     -4.822892    2.171759    3.833301
N     -1.417169   -0.073903   -2.812476
O      1.401833   -0.690681    0.168021
O      6.599930    0.904468   -0.513894
O      5.637786    1.409547    1.417721
H     -2.729088    1.738385   -0.177060
H     -3.255287   -1.748615    2.186501
H     -3.863744    3.080644    1.568770
H     -4.402999   -0.356417    3.948162
H      2.776746   -1.174279   -2.043894
H      5.079874   -0.502039   -2.431709
H     -4.174996   -0.919119   -1.041740
H     -3.130535   -2.202234   -1.689887
H     -3.306159    0.778170   -2.273152
H     -3.313484   -0.623490   -3.390476
H      2.935050    0.612491    1.847423
H     -1.040936   -1.956206   -2.050437
H      0.431329   -0.943223   -2.212926
H     -0.140981   -0.703234    1.470146
H     -0.075480   -2.137076    0.448459
H      7.395964    0.266268    1.297875
H      7.614961    2.004969    0.971021
H     -0.827056    0.663161   -0.524139
H     -2.099433   -1.971236    0.292884
H     -1.136882    0.921238   -2.590164
