42

C      3.447447   -0.634216   -2.110858
C     -2.156009    2.686813    0.201401
C      3.507307    0.586408   -1.192124
C     -2.315796    1.733672   -0.951566
C      3.215913   -0.223940    2.482576
C      3.722581    0.062823    1.234773
C      1.837464   -0.285499    2.589953
C     -1.500701   -0.301058    2.228549
C     -2.541728   -1.020471    1.354034
C     -2.249714   -0.532614   -1.772424
C      2.922844    0.280664    0.136486
C      1.007608   -0.071741    1.506662
C     -0.355603   -0.067688    1.311097
C     -2.044969   -1.960431   -1.585391
C      1.551367    0.217501    0.251965
C     -0.657135    0.211008   -0.006065
C     -2.051331    0.284911   -0.511756
N      0.533593    0.375545   -0.605505
O     -0.880791   -2.417109   -1.562300
O     -3.089676   -2.852093   -1.429673
O     -2.967137   -0.100851    0.428795
H      2.443588   -0.801327   -2.520719
H      4.208282   -0.463343   -2.895993
H      3.792079   -1.499057   -1.494522
H     -2.616765    3.651723   -0.099112
H     -2.692824    2.336404    1.090967
H     -1.067056    2.829173    0.360115
H      3.057968    1.464550   -1.659835
H      4.587338    0.804013   -1.054338
H     -3.373664    1.763852   -1.277282
H     -1.634843    1.970210   -1.773994
H      3.871603   -0.389552    3.323712
H      4.811254    0.115564    1.129299
H      1.388105   -0.509677    3.561561
H     -1.249841   -1.022591    3.036585
H     -1.910566    0.636789    2.647148
H     -3.395160   -1.353134    1.951492
H     -1.976423   -1.875080    0.897678
H     -1.675382   -0.123283   -2.605671
H     -3.333792   -0.383140   -2.047089
H      0.711520    0.604384   -1.625663
H     -2.880952   -3.728109   -0.942969
