32

C     -0.332479    2.527448   -1.537224
C     -2.355545   -3.130615    0.137039
C     -0.859230    1.152795   -1.498700
C      3.706881   -0.065860    0.188188
C      2.956692   -1.139326   -0.221299
C      3.058084    1.112979    0.443296
C      1.566497   -1.043089   -0.377116
C      1.696074    1.248344    0.302113
C      0.952969    0.149649   -0.114023
C     -1.094637    0.878572    0.957226
C     -1.100315   -1.053736   -0.521363
C     -2.330847   -1.062222    1.568262
C     -0.542001    0.313205   -0.291418
N     -1.881414    0.251988    1.774022
N     -1.927453   -1.741902    0.397075
O     -0.778002    2.194897    1.339482
O     -0.838951   -1.660672   -1.605969
O     -3.081567   -1.643646    2.401412
H      0.769008    2.584918   -1.750508
H     -0.534447    3.177258   -0.688076
H     -0.800982    3.036865   -2.426629
H     -2.456434   -3.624838    1.110613
H     -3.311894   -3.045581   -0.422671
H     -1.543717   -3.555952   -0.499075
H     -0.443409    0.603102   -2.388022
H     -1.959761    1.104148   -1.640211
H      4.793900   -0.178022    0.299379
H      3.412195   -2.104835   -0.440326
H      3.668232    1.962456    0.769821
H      1.040738   -1.930455   -0.687190
H      1.264671    2.201197    0.518695
H     -0.712857    2.480929    2.298630
