26

C      3.796821   -0.753620    0.054495
C      3.750242    0.495497   -0.523093
C      2.610947   -1.314578    0.450095
C      2.560966    1.144518   -0.692000
C     -3.202128    0.027422   -0.301721
C     -2.440076   -0.910058    0.630388
C      0.137674   -1.298267    0.738699
C      1.384531   -0.653551    0.280064
C      1.333147    0.593829   -0.296794
C     -2.406892    1.288950   -0.252016
C     -0.997400    0.791825   -0.161248
N      0.131680    1.301923   -0.508219
N     -1.033645   -0.492434    0.412474
O     -2.592004    2.098138   -1.362856
H      4.742383   -1.289666    0.197873
H      4.670009    0.941145   -0.834594
H      2.610143   -2.309235    0.914327
H      2.490270    2.143437   -1.150120
H     -4.244504    0.131553   -0.001386
H     -3.182881   -0.369042   -1.337487
H     -2.735584   -0.816867    1.672791
H     -2.527489   -1.938426    0.236655
H      0.045266   -2.335843    0.356063
H      0.208835   -1.360110    1.857699
H     -2.634987    1.845149    0.678655
H     -2.475321    3.038313   -1.058743
