50

C     -5.500314   -0.103629    1.226500
C     -4.686423   -0.867446   -0.910842
C      4.954037    3.146155    0.941353
C      4.391184   -2.320845    1.944484
C      0.775541    1.818229   -1.611832
C      0.145695    0.784982   -2.518474
C     -3.108443    0.291301    0.700137
C      2.820203    1.732241   -0.168277
C      2.561453   -0.931052    0.331420
C     -0.188163   -1.934905   -0.015320
C     -1.722360   -0.150699   -1.325985
C     -4.232800   -0.653019    0.509028
C      1.752607    1.072089   -0.735325
C     -1.785633   -0.007628    0.145930
C      1.626345   -0.273138   -0.479391
C      0.504807   -1.069043   -1.043833
C     -1.150684   -1.192435    0.799315
C      3.737813    1.080193    0.629476
C      3.629541   -0.270220    0.898506
N     -0.384330   -0.326852   -1.837184
O     -1.432573   -1.486988    1.915097
O      4.821488    1.743335    1.206958
O      4.552430   -0.936050    1.703160
H     -5.185361    0.577304    2.031522
H     -6.124031   -0.946208    1.579726
H     -6.105318    0.491254    0.512658
H     -5.826409   -0.938961   -0.907036
H     -4.412024   -0.060282   -1.602002
H     -4.389761   -1.886335   -1.255692
H      5.275564    3.317690   -0.112633
H      4.020303    3.692223    1.116976
H      5.734245    3.591313    1.584628
H      4.290858   -2.839408    0.956253
H      3.539559   -2.522941    2.611404
H      5.365676   -2.682858    2.360025
H      1.319188    2.560180   -2.239927
H      0.042487    2.391417   -1.015680
H      0.969221    0.428343   -3.194369
H     -0.611017    1.238775   -3.190634
H     -3.483875    1.300526    0.325092
H     -3.043886    0.481743    1.823605
H      2.934548    2.799030   -0.361067
H      2.473829   -1.998513    0.536870
H      0.549186   -2.522140    0.538784
H     -0.792004   -2.678356   -0.618617
H     -2.202515    0.727856   -1.797837
H     -2.274252   -1.055587   -1.637792
H     -4.057076   -1.657740    0.958427
H     -1.104826    0.859158    0.423934
H      1.016273   -1.812059   -1.731516
