25

C      3.286711    1.480769   -0.469545
C     -0.812445    0.620484   -0.370012
C     -1.622263   -1.489311    0.273088
C     -2.123265    1.059118   -0.583323
C     -2.915871   -1.068047    0.066454
C      1.918310   -0.187224    0.409218
C     -0.522796   -0.648178    0.058350
C     -3.184783    0.211736   -0.364601
C      0.825007   -1.178322    0.299357
N      2.194556    0.578641   -0.788716
O     -4.485226    0.670142   -0.583783
O      0.763899   -1.818725    1.571239
H      2.816625    2.401898   -0.039803
H      3.931239    0.974530    0.271206
H      3.895382    1.721806   -1.375219
H      0.021155    1.299437   -0.541848
H     -1.412917   -2.513189    0.617624
H     -2.286205    2.069902   -0.921115
H     -3.726751   -1.759067    0.247837
H      1.802240    0.507607    1.277777
H      2.888575   -0.721523    0.638026
H      1.042592   -1.972691   -0.426325
H      2.577694   -0.098282   -1.514356
H     -5.051643    1.110174    0.111957
H      0.180178   -1.251686    2.136515
