42

C     -2.217010    1.133876    1.235810
C      1.670952   -1.851143    1.027847
C      4.007039    1.418423   -0.364977
C      0.332001   -2.000334    0.336569
C      2.662175    1.322110   -0.710550
C     -2.669525   -1.659201    0.224340
C     -4.005370   -0.928592    0.140543
C     -0.134150    1.582589   -0.843640
C     -1.606156    1.584114   -1.104701
C      3.769636   -0.597704    0.858587
C      2.438107   -0.686949    0.512512
C      4.570445    0.434047    0.438251
C      1.874192    0.283447   -0.281871
C      0.477734    0.234142   -0.673309
C     -0.350663   -0.676488    0.245646
C     -1.696072   -0.726692   -0.370542
C     -3.710869    0.382447   -0.512907
C     -2.308836    0.665725   -0.185973
O      5.899878    0.540110    0.772888
O     -4.481983    1.061584   -1.174466
H     -3.027955    1.907616    1.375145
H     -2.478073    0.322407    1.946225
H     -1.274582    1.623685    1.496468
H      1.511715   -1.705724    2.112191
H      2.228409   -2.803129    0.848536
H      4.622031    2.230898   -0.700723
H      0.544133   -2.348885   -0.707599
H     -0.257948   -2.729233    0.906397
H      2.311927    2.134550   -1.338898
H     -2.446996   -1.978936    1.259062
H     -2.756858   -2.562607   -0.418653
H     -4.338892   -0.742821    1.161730
H     -4.755072   -1.516164   -0.418398
H      0.149617    2.298199   -0.026355
H      0.338110    2.031167   -1.768196
H     -1.791954    1.352240   -2.168877
H     -1.969002    2.636801   -0.921273
H      4.237526   -1.358848    1.489428
H      0.421595   -0.276059   -1.679496
H     -0.381144   -0.200477    1.266405
H     -1.592569   -0.869785   -1.475913
H      6.184458    1.039593    1.614130
