29

C     -3.198464    1.090625    0.749402
C     -3.054815   -0.647134   -1.432914
C      0.982256   -0.717911    1.573135
C      2.185436   -1.373049    1.323087
C     -0.783035    0.958872    1.027106
C      1.279370    0.592997   -0.363927
C      4.698181   -0.436781   -1.123450
C     -1.960291    0.295460    0.392262
C      0.500229    0.269935    0.749720
C      2.944772   -1.044260    0.219747
C      2.473894   -0.054889   -0.615457
N     -1.873150    0.130384   -1.022965
O      4.173590   -1.500891   -0.304357
O      3.443057    0.053804   -1.628495
H     -2.925848    2.138846    1.056350
H     -3.683017    0.651563    1.642556
H     -3.871525    1.214320   -0.115710
H     -3.515494   -0.224523   -2.350422
H     -3.780827   -0.762170   -0.617184
H     -2.738476   -1.696955   -1.689623
H      0.411640   -1.013063    2.462845
H      2.546041   -2.147773    1.984400
H     -0.993744    1.033944    2.111550
H     -0.727034    2.019940    0.666189
H      0.925486    1.357172   -1.020765
H      5.379329   -0.774366   -1.892304
H      5.099008    0.301404   -0.401459
H     -2.058319   -0.724947    0.834380
H     -1.878250    1.009446   -1.570696
