171

C     13.404668    3.554081    1.776854
C      5.280959   -4.281953    2.183759
C      5.611727   -3.623257    4.498285
C      3.508128   -1.288950   -2.985133
C      2.206234    0.447899   -1.834761
C     12.045958    3.155656    2.297624
C    -11.102143    1.791815   -2.314342
C    -12.212273    2.217250   -1.622263
C      8.232492   -0.560584   -3.031195
C     11.760294    1.748414   -2.344901
C     -9.858935    2.301272   -2.071065
C    -12.024481    3.183632   -0.669508
C      7.510420    0.450087   -2.258282
C     12.368577    1.124104   -1.129128
C     -2.753261   -0.097420   -3.200758
C     -4.049471   -1.292764   -1.626285
C     -3.855273    0.089303   -3.991125
C     -5.150063   -1.097007   -2.430189
C    -10.273122   -3.826219    0.532693
C     -9.777791   -5.066008   -0.169248
C      8.032364   -1.998987   -2.776861
C     10.337564    2.187820   -1.935613
C      5.885360   -1.909156    2.700027
C      2.282542   -1.872937   -0.973258
C     -1.579415   -0.961626   -1.181557
C     -7.172422    3.770274   -1.179351
C    -10.055219    0.031544    1.039576
C     -9.020129    4.836668    0.298416
C     -9.612960    0.794103    3.442753
C     -2.591148    3.010054    1.370097
C    -11.524824    1.691990    3.852679
C      5.102735   -3.107912    3.159436
C      3.050222   -0.779002   -1.622496
C     -2.821234   -0.799263   -1.987765
C     -8.541636    3.973432   -0.680896
C    -10.356006    0.630106    2.334831
C     -5.089903   -0.412378   -3.616957
C     -9.657820    3.270941   -1.118487
C    -10.770991    3.697986   -0.425982
C     -8.962459   -3.073696    0.800300
C      7.700216    0.546617   -0.795918
C      5.331269   -1.556954    1.311203
C      1.735096   -1.541595    0.403718
C     -1.518307    0.201007   -0.177937
C     -6.455572    2.648583   -0.492772
C     -8.598409   -0.158884    0.757856
C     -3.730512    2.127961    0.867742
C     11.432381    1.663693   -0.036055
C     -8.432735   -5.244983    0.436711
C     -8.546762   -2.268503   -0.363975
C      6.080233   -0.362849    0.778396
C      2.824911   -1.191226    1.375548
C     -0.213761    0.036113    0.616571
C     -5.103542    2.523485   -1.096924
C     -7.876320    1.123084    0.702878
C     -3.499811    0.702576    1.186451
C     11.653144    1.009571    1.230099
C      9.017836    0.753896   -0.236885
C      9.678352   -2.543954   -0.960755
N     10.622517   -2.299593   -1.814304
N      9.938474   -2.830371    0.403521
N    -10.321404    1.453824    4.399768
N     11.930472    1.717236    2.275962
N      8.356177   -2.509626   -1.483483
N    -10.332055    4.651255    0.425517
N    -11.571514    1.201185    2.597229
N     -7.999686   -4.160669    0.958874
N      6.911672   -0.470710   -0.168721
N      3.987142   -1.404601    1.260349
N      0.619670   -0.795149    0.359364
N     -2.591167    0.013476    0.720533
N     -7.180459    1.447708   -0.350731
N     -8.384291   -1.005915   -0.397883
N     -4.022371    2.313059   -0.511677
N     10.134132    1.446352   -0.692736
O     -2.362330    2.779107    2.700904
O     -6.176907   -0.200041   -4.445175
O     -7.735259   -6.453393    0.432123
O     -8.308538   -2.987908   -1.550731
O      5.832383    0.854338    1.363430
O      2.342266   -0.538068    2.544773
O     -0.021739    0.924604    1.692508
O     -5.051553    2.653824   -2.504247
O     -7.884173    2.041232    1.720095
O     -4.393235    0.102219    2.095531
O     11.590856   -0.354621    1.410126
O      9.181500    0.175037    0.920026
H     14.037531    2.630422    1.621407
H     13.367733    4.063918    0.795146
H     13.965827    4.207747    2.489730
H      5.054874   -5.245900    2.682195
H      4.576107   -4.187389    1.332945
H      6.339508   -4.338110    1.869217
H      5.005996   -4.472862    4.854541
H      6.643830   -4.031823    4.296800
H      5.689432   -2.799156    5.219805
H      3.942657   -2.292438   -2.888219
H      2.622516   -1.268660   -3.646962
H      4.269857   -0.607484   -3.400474
H      1.228323    0.222828   -2.272510
H      2.728648    1.142873   -2.538775
H      2.037925    0.999297   -0.865710
H     11.976640    3.547024    3.353062
H     11.265351    3.678531    1.709647
H    -11.267610    1.029609   -3.065660
H    -13.209587    1.807211   -1.816300
H      7.944431   -0.392861   -4.124374
H      9.346564   -0.392211   -3.069776
H     11.659489    0.967834   -3.145413
H     12.329384    2.593075   -2.745727
H     -9.006843    1.950165   -2.628759
H    -12.869942    3.551764   -0.092861
H      6.373528    0.173761   -2.439184
H      7.523566    1.441496   -2.739679
H     13.412901    1.407957   -0.956474
H     12.209346    0.013422   -1.157112
H     -1.789599    0.287605   -3.482966
H     -4.137018   -1.837496   -0.692685
H     -3.802197    0.630825   -4.927066
H     -6.117015   -1.491689   -2.126532
H    -10.960735   -3.219912   -0.090399
H    -10.693787   -4.088662    1.528716
H    -10.452430   -5.937376   -0.003259
H     -9.690159   -4.885258   -1.271842
H      6.968737   -2.240684   -3.059553
H      8.630077   -2.638301   -3.505294
H      9.631934    1.953948   -2.724094
H     10.369780    3.279641   -1.685386
H      5.611616   -1.059328    3.355919
H      6.967056   -2.064526    2.660890
H      2.860181   -2.835674   -0.924674
H      1.404625   -2.108094   -1.604778
H     -1.721040   -1.882550   -0.562409
H     -0.708479   -1.027501   -1.823201
H     -7.225517    3.622871   -2.282134
H     -6.614314    4.745741   -1.039515
H    -10.590103   -0.951846    0.948711
H    -10.500456    0.648086    0.201656
H     -8.392119    5.540280    0.849924
H     -8.599809    0.472412    3.658071
H     -2.975172    4.068265    1.272382
H     -1.722832    2.958115    0.707061
H    -12.321458    2.211452    4.386527
H      4.042844   -2.844143    3.293402
H      3.935231   -0.444474   -1.050602
H     -9.023103   -2.524430    1.745560
H      7.117330    1.524300   -0.462756
H      5.654941   -2.409013    0.648743
H      1.428803   -2.606910    0.786690
H     -1.516209    1.117832   -0.759170
H     -6.230473    3.081331    0.549092
H     -8.161296   -0.742545    1.637194
H     -4.637411    2.503041    1.448609
H     11.648427    2.762164   -0.027529
H     11.599711   -2.321662   -1.454179
H      9.162748   -2.898532    1.080784
H     10.909189   -2.967060    0.714655
H      7.614786   -2.912069   -0.873216
H    -10.942883    5.162397    1.082333
H    -12.389845    1.265923    1.980675
H     -3.015640    2.099402    3.022841
H     -6.746639    0.618519   -4.328828
H     -7.111859   -6.706016    1.180478
H     -8.317113   -2.571449   -2.461129
H      6.601515    1.527717    1.501152
H      2.899294   -0.549950    3.396365
H      0.812749    1.493192    1.735966
H     -4.189643    2.817193   -3.002602
H     -7.084295    2.445764    2.164072
H     -4.438360   -0.903396    2.222836
H     11.353902   -0.708250    2.337029
