27

C      2.243836   -0.662215   -1.411530
C     -4.267515    0.394119   -0.034535
C     -4.205263   -0.605185    0.920363
C     -3.104771    0.840196   -0.579612
C     -3.007230   -1.131020    1.306527
C      3.831531    1.332524    0.355476
C      1.825892   -0.246464   -0.026609
C     -1.880147    0.297594   -0.179977
C     -1.809763   -0.692074    0.764843
C      2.415899    1.052651    0.382501
C     -0.535244    0.590680   -0.596096
C     -0.422235   -1.043375    0.964229
N      5.573110   -0.281981    1.107491
N      4.668506    0.508147    0.760275
N      0.385500   -0.234988    0.106117
O      1.631905    1.961979    0.775844
O     -0.218252    1.446427   -1.450775
O      0.004458   -1.915243    1.760195
H      2.363054    0.172928   -2.102862
H      3.143353   -1.320456   -1.413080
H      1.404451   -1.300613   -1.814703
H     -5.212800    0.826106   -0.355661
H     -5.141785   -0.941811    1.337585
H     -3.108689    1.608171   -1.317834
H     -2.972211   -1.915946    2.057950
H      4.173528    2.275730   -0.023258
H      2.220881   -1.015880    0.673993
