30

C      4.143955    0.454360   -0.095131
C     -2.174538    0.361529   -1.074243
C     -2.640196    0.628676    1.191578
C     -1.885832   -1.422809    0.392201
C     -0.415146    0.486090    0.533639
C      1.050146   -1.036110   -0.824043
C      2.800724    0.269336   -0.738342
C      0.608301    0.359487   -0.530162
N     -1.707082   -0.012757    0.248062
O      2.438382   -1.061391   -0.672618
O      1.803431    0.921537   -0.018012
I      0.000000    0.000000    0.000000
H      4.129086    1.313611    0.606613
H      4.398105   -0.450681    0.499010
H      4.933466    0.655949   -0.848505
H     -2.449623    1.445696   -1.117948
H     -3.105791   -0.191745   -1.336308
H     -1.456178    0.167994   -1.872125
H     -2.507240    0.107548    2.163966
H     -3.665813    0.556370    0.829014
H     -2.365296    1.710527    1.278126
H     -2.967654   -1.599307    0.627312
H     -1.701877   -1.993341   -0.541431
H     -1.325896   -1.845908    1.254481
H     -0.520136    1.590199    0.757188
H     -0.050203    0.049819    1.493881
H      0.839529   -1.273944   -1.885688
H      0.649644   -1.788380   -0.117528
H      2.778116    0.639228   -1.765431
H      0.365614    0.958418   -1.416210
