51

C     -3.228725    1.712954   -0.930314
C     -5.136306    0.596518   -0.191987
C      6.043212    1.451337   -1.128656
C      5.984753    1.245577    0.237357
C      5.037607    0.963727   -1.939016
C      4.912935    0.551877    0.759445
C      3.969239    0.270985   -1.408442
C     -1.729719   -0.731065   -0.805069
C     -1.730387    0.675223    1.279143
C      2.846173   -2.115747    0.013384
C      3.904465    0.060669   -0.035626
C     -0.973407    0.160140    0.104281
C      2.741132   -0.688666    0.502303
C     -3.209252   -0.682859   -0.677873
C     -3.209063    0.568148    1.179839
C     -3.637458   -1.662577    0.382471
C     -3.593393   -0.838449    1.652294
C      1.478432   -0.051279    0.139303
N     -3.705331    0.582816   -0.177109
O      4.026144   -2.711907    0.451286
O      1.522775    1.016288   -0.559371
O      0.226689   -0.493336    0.480407
O     -4.735795   -1.419318    1.169308
N      0.001593    0.042623    0.000290
O      1.268923   -0.488391   -0.005693
O     -1.064238   -0.810652   -0.003114
O     -0.206278    1.256420    0.008517
H     -4.082371    2.347954   -1.306781
H     -2.673313    1.418126   -1.849381
H     -2.636680    2.396540   -0.279997
H     -5.593720   -0.286019   -0.686294
H     -5.540588    1.483287   -0.763923
H     -5.549515    0.748254    0.848235
H      6.861515    1.989718   -1.597086
H      6.785791    1.638276    0.848650
H      5.061262    1.114376   -3.028458
H      4.849856    0.380988    1.826189
H      3.176468   -0.112554   -2.054234
H     -1.482314   -0.543826   -1.891182
H     -1.411389   -1.800169   -0.639989
H     -1.411528    0.125228    2.210043
H     -1.473853    1.745654    1.492035
H      2.000526   -2.738340    0.309622
H      2.889738   -2.144357   -1.108380
H     -0.649454    1.060225   -0.496848
H      2.890434   -0.741331    1.620006
H     -3.733868   -0.875461   -1.645874
H     -3.699104    1.337266    1.822385
H     -3.221965   -2.680594    0.396145
H     -3.049218   -1.255136    2.514673
H      3.888568   -3.069163    1.360158
