65

C     -4.491024   -1.349841   -0.504167
C     -0.061280   -1.295226    1.171327
C     -4.723681    0.721612    1.682887
C     -3.351249    1.408447    1.714799
C      8.021693   -2.013709   -0.705726
C      6.851669   -2.089339    0.237212
C     -5.787467    1.053618   -2.506110
C     -0.469497    1.348800    2.296747
C     -4.718943    0.372695   -2.116374
C      0.988137    1.565717    1.932552
C     -6.157613    1.507190   -0.120914
C     -0.398418   -0.124671   -1.016600
C      3.565491   -0.132040    0.068804
C     -5.102754    0.835057    0.221714
C     -6.616289    1.691601   -1.495473
C     -2.431256    0.538884    0.916935
C     -1.022798    1.018877    0.969494
C     -1.852195   -0.430131   -1.254333
C      2.388798   -0.159278    0.963618
C      8.609399   -0.657402   -0.767970
C      5.760694   -1.160609   -0.185437
C     -2.794497    0.491264   -0.560118
C     -4.238938    0.158648   -0.768805
C     -0.068189   -0.017611    0.447323
C      1.233817    0.707953    0.684746
O     -7.639267    2.345215   -1.781983
O     -2.050453   -1.769788   -0.938913
O      2.403417   -0.905196    1.918559
O      8.169578    0.325703   -0.089100
O      9.686621   -0.394369   -1.585483
O      5.933920   -0.472275   -1.217220
O      1.535139    1.518422   -0.416280
O      4.577757   -1.043895    0.526775
H     -4.329659   -1.953507   -1.391065
H     -5.585916   -1.475944   -0.254974
H     -3.954364   -1.684799    0.405541
H      0.720878   -1.954279    0.744884
H     -1.006512   -1.874042    1.132638
H      0.150908   -1.169402    2.252239
H     -5.379784    1.251618    2.350575
H     -4.560759   -0.340895    1.881640
H     -3.020811    1.486840    2.749291
H     -3.486357    2.406177    1.223820
H      8.807212   -2.695724   -0.329218
H      7.759047   -2.366646   -1.720821
H      7.234093   -1.809085    1.250269
H      6.522359   -3.130804    0.303370
H     -6.065244    1.151794   -3.551806
H     -0.842668    2.331258    2.699763
H     -0.592275    0.554932    3.048955
H     -4.137102   -0.081115   -2.963130
H      1.666993    1.277079    2.754984
H      1.113363    2.616054    1.617701
H     -6.779844    1.990126    0.660514
H     -0.123106    0.857848   -1.475584
H      0.190449   -0.962916   -1.437813
H      4.048632    0.857494    0.020916
H      3.300176   -0.532115   -0.949589
H     -2.486581   -0.484740    1.335800
H     -0.935236    1.905686    0.307633
H     -1.946738   -0.353794   -2.384334
H     -2.610707    1.507964   -0.950899
H     -1.322329   -2.350854   -1.196519
H     10.022617    0.522125   -1.812498
H      1.878943    0.909339   -1.115892
