34

C     -1.918747    2.466283    1.280191
C      2.754362   -1.144780    0.676645
C     -3.675539   -1.304321    1.101864
C      1.517001   -1.412023    0.180817
C     -3.044960   -0.041490    1.148340
C      2.885191    0.898007   -0.494688
C     -2.145599   -1.873838   -0.644498
C      3.481685   -0.010913    0.371703
C     -3.195727   -2.226046    0.173470
C      0.967066   -0.465108   -0.685931
C     -1.511625   -0.632045   -0.603939
C      1.618893    0.671254   -1.023566
C     -1.984160    0.263627    0.295400
C     -0.299094    0.764161   -2.214431
C     -0.325760   -0.490721   -1.456147
C      4.872570    0.208000    0.920938
Cl    -3.938830   -3.821564    0.094458
F     -0.300936   -1.521855   -2.371501
F      4.763316    0.616643    2.206009
F      5.554622    1.128110    0.177131
F      5.536142   -1.008420    0.881304
N      0.786713    1.378085   -1.958495
O     -1.237327    1.323643   -3.103924
O     -1.397153    1.534622    0.363795
H     -3.032322    2.570332    1.089768
H     -1.659697    2.201097    2.301575
H     -1.563431    3.507922    1.022741
H      3.195832   -1.876228    1.342525
H     -4.465825   -1.553646    1.798558
H      0.929619   -2.284664    0.353710
H     -3.402132    0.675763    1.859277
H      3.402958    1.790177   -0.767181
H     -1.750525   -2.654618   -1.324366
H     -1.416580    2.324555   -2.991553
