49

C     -7.590977   -1.147318   -0.300931
C     -6.386355   -0.324440    0.178220
C     -5.568978   -0.020348   -1.056549
C     -4.344941    0.796168   -0.719140
C     -3.499842    0.005606    0.247425
C     -2.235681    0.795949    0.624564
C     -1.472467   -0.099592    1.589617
C     -0.198144    0.513877    2.084616
C      0.711580    0.817282    0.929446
C      1.037130   -0.430541    0.187880
C      1.947986   -0.265673   -0.988993
C      7.663779    0.508175   -0.158545
C      5.502881    1.035133   -1.299920
C      6.254766    0.028431   -0.469689
C      3.294940    0.269368   -0.653091
O      8.304309   -0.511879    0.542906
O      6.348554   -1.140852   -1.249409
O      3.580023    0.481221    0.545775
O      4.238448    0.539826   -1.616304
H     -7.212748   -1.801897   -1.112637
H     -8.400318   -0.489885   -0.636360
H     -7.939628   -1.818646    0.506191
H     -6.690671    0.589100    0.697727
H     -5.832152   -1.026127    0.852565
H     -6.198987    0.480184   -1.809940
H     -5.195906   -0.999923   -1.473898
H     -3.762398    0.872537   -1.683586
H     -4.562486    1.806544   -0.381495
H     -4.001277   -0.214193    1.195332
H     -3.138493   -0.941901   -0.194288
H     -2.507459    1.727202    1.176029
H     -1.666109    1.067972   -0.266871
H     -1.334514   -1.100327    1.132105
H     -2.174961   -0.313544    2.458952
H     -0.393951    1.410798    2.709894
H      0.307945   -0.273689    2.714606
H      0.220762    1.514973    0.193839
H      1.614768    1.379127    1.263172
H      1.424084   -1.218816    0.873480
H      0.083229   -0.865063   -0.236447
H      2.063229   -1.270310   -1.453844
H      1.439832    0.372140   -1.747957
H      7.636894    1.449061    0.400103
H      8.173259    0.610596   -1.142129
H      6.033689    1.202821   -2.268383
H      5.418456    2.018170   -0.754421
H      5.707996   -0.216862    0.442954
H      7.846321   -0.645020    1.425305
H      5.454585   -1.562722   -1.297876
