34

C     -3.283378   -0.587619   -0.785971
C     -4.286279    1.176336    0.645194
C      2.192359    0.964543   -0.785203
C      3.546425    0.974859   -0.644630
C      2.157767   -1.269918    0.071523
C     -0.616427    0.556440    0.521032
C     -3.048733    0.283802    0.396737
C      1.489790   -0.182403   -0.417922
C      4.220928   -0.116899   -0.153273
C      3.535161   -1.257986    0.213174
C      0.025243   -0.167145   -0.603419
N     -1.912661    1.039091    0.436447
O      5.592873   -0.055267   -0.030816
O      4.200644   -2.361565    0.709552
O     -0.516247   -1.382623   -0.947382
Cl     0.683028    0.000000    0.000000
H     -3.100600   -1.657756   -0.592018
H     -4.377559   -0.538853   -1.103289
H     -2.748485   -0.265555   -1.701764
H     -5.225181    0.648749    0.466180
H     -4.220698    1.495310    1.696425
H     -4.272813    2.071756    0.013815
H      1.624278    1.820830   -1.174462
H      4.077332    1.895644   -0.942374
H      1.550309   -2.124446    0.343061
H     -0.522379   -0.164099    1.424822
H      0.064126    1.405316    0.886196
H     -3.083524   -0.413694    1.314504
H     -0.109971    0.510914   -1.548696
H     -1.986862    2.077567    0.303016
H      6.103676    0.771084   -0.298107
H      3.698374   -3.184880    0.973301
H     -0.767488   -1.961533   -0.201095
H     -0.683028    0.000000    0.000000
