45

C     -3.314622   -1.868286    0.551799
C     -1.026375    3.056095    2.600123
C      5.538471   -0.504246    1.765565
C      5.673017    0.243848    0.613685
C      4.276102   -0.963032    2.081692
C      4.590076    0.530108   -0.202353
C      3.185770   -0.674221    1.259134
C     -3.063651   -1.310621   -2.042529
C     -3.388110    0.031929   -1.423112
C     -0.638106   -1.091706   -1.890259
C      3.330741    0.073045    0.112021
C     -1.825268   -1.707294   -1.240932
C     -2.490089    0.177347   -0.234816
C     -0.204522    0.213543   -1.282317
C     -1.264701    0.973952   -0.594787
C      2.191253    0.376650   -0.750442
C     -0.762906    1.592257    0.654309
N     -2.105695   -1.186107    0.083990
O      2.306280    1.057508   -1.801042
O      0.384520    1.339692    1.086838
O     -1.537432    2.479892    1.405611
O      0.904475   -0.076083   -0.452298
Cl     0.691940    0.000000    0.000000
H     -3.407132   -1.796198    1.635803
H     -4.229744   -1.446656    0.102678
H     -3.302247   -2.948712    0.253438
H     -1.760240    3.815421    2.932143
H     -0.861874    2.291832    3.375295
H     -0.058497    3.571920    2.420571
H      6.375990   -0.738196    2.416758
H      6.652073    0.610258    0.351567
H      4.144276   -1.557383    2.988613
H      4.700036    1.123129   -1.114406
H      2.205230   -1.037685    1.516055
H     -2.834018   -1.224305   -3.116175
H     -3.872616   -2.043298   -1.930779
H     -3.157251    0.807954   -2.195124
H     -4.456134    0.103596   -1.203726
H     -0.858402   -0.993618   -2.983362
H      0.193437   -1.857197   -1.850801
H     -1.742398   -2.805176   -1.152528
H     -2.993185    0.678220    0.621803
H      0.152432    0.840033   -2.155137
H     -1.648965    1.841792   -1.212564
H     -0.691940    0.000000    0.000000
