59

C      6.494365   -0.469989    2.818360
C      6.048389   -0.770256    1.554879
C      5.671642    0.163392    3.714910
C      4.747558   -0.427632    1.181416
C      4.370575    0.503970    3.335794
C      2.585331    1.781280    0.821812
C     -4.923060    1.524962   -0.142252
C      0.068782   -0.476509   -1.420529
C      3.909269    0.208785    2.070690
C      2.519498    0.566038    1.648823
C     -3.985945    1.399090   -1.314167
C     -0.420601   -1.342732   -0.297141
C     -3.842600    2.681461   -2.080488
C      0.513671   -2.559561   -0.270333
C     -2.957038    2.418674   -3.263428
C      0.415926   -3.222008    1.064453
C     -2.321137    1.077215   -3.282351
C      0.946409   -2.313238    2.143485
C     -1.965746    0.518321   -1.940770
C      0.762018   -0.879757    1.655730
N      2.641372    2.746538    0.184360
O     -4.455283    2.499198    0.743282
O     -5.118955    3.145106   -2.473472
O      0.089893   -3.442209   -1.258889
O     -2.012731    3.458208   -3.425735
O      1.070000   -4.446993    1.106093
O     -3.073437    0.162728   -4.024402
O      0.240217   -2.445871    3.336057
O     -0.624742    0.684462   -1.622087
O      1.907666   -0.476398    0.985834
O     -2.709530    1.035133   -0.895993
O     -0.391714   -0.724496    0.927946
H      7.499328   -0.743364    3.083937
H      6.671105   -1.270201    0.820953
H      6.068478    0.378357    4.697193
H      4.360981   -0.646297    0.198985
H      3.739570    1.002635    4.058682
H     -4.933735    0.534128    0.367700
H     -5.937875    1.722926   -0.510692
H      0.113253   -1.117863   -2.329091
H      1.124921   -0.188801   -1.192470
H      1.953778    0.830315    2.552832
H     -4.361013    0.625311   -2.003486
H     -1.422363   -1.765040   -0.534930
H     -3.334394    3.473882   -1.464487
H      1.518246   -2.205185   -0.528061
H     -3.611583    2.497073   -4.176726
H     -0.672862   -3.458516    1.227434
H     -1.348797    1.180405   -3.851283
H      2.010909   -2.466559    2.357540
H     -2.167811   -0.570360   -1.968358
H      0.660516   -0.228380    2.560215
H     -4.047707    2.059734    1.553935
H     -5.582008    3.390746   -1.631963
H      0.582508   -3.313095   -2.097444
H     -2.372505    4.317469   -3.063527
H      1.215812   -4.649354    2.079530
H     -3.173097    0.422593   -4.954722
H     -0.753718   -2.389473    3.166417
