28

C     -1.873638   -0.453464    1.382295
C     -1.592129   -0.484905   -0.928277
C     -1.696419    1.547455    0.205912
C      2.536717   -0.482196   -0.220152
C      0.224464    0.266851    0.472052
C      1.052468   -0.602652   -0.416237
C      3.113132    0.831335   -0.449314
N     -1.173408    0.195872    0.268280
O      0.739544   -1.963428   -0.268723
O      2.456616    1.831188   -0.813212
O      4.473163    1.018258   -0.260846
Cl     0.691390    0.000000    0.000000
H     -1.405891   -0.114283    2.320241
H     -2.920902   -0.088975    1.401659
H     -1.878483   -1.540246    1.289584
H     -1.490310   -1.595015   -0.860924
H     -1.138184   -0.052805   -1.819668
H     -2.707445   -0.320054   -1.014994
H     -2.789675    1.485639    0.336946
H     -1.204819    2.196962    0.953690
H     -1.495382    1.912331   -0.823143
H      2.826847   -0.874223    0.782049
H      2.986651   -1.228896   -0.942221
H      0.404553   -0.012640    1.554510
H      0.573619    1.312489    0.406805
H      0.848047   -0.365327   -1.482151
H      1.130866   -2.419269   -1.074158
H     -0.691390    0.000000    0.000000
