64

C      5.759508   -2.362085    0.707467
C     -3.013048   -1.589580    1.779728
C     -3.979478   -1.769670    0.655308
C     -1.779735   -0.961620    1.145124
C     -0.080898    2.575110   -0.292316
C      1.917941   -1.987170    1.176257
C     -1.834444    3.866656   -1.560595
C     -0.686248    4.621713   -3.245252
C     -0.546918    3.409658   -1.397964
C      1.956812   -0.768829    2.026419
C     -0.128599    1.084866   -0.539969
C     -3.589008   -0.732745   -0.330704
C      3.241148   -2.372549    0.622251
C     -3.712247   -1.225267   -1.736963
C      1.267625    0.401524    1.356549
C     -1.537802    0.658066   -0.802984
C      4.391060   -0.813584    2.058901
N     -2.646431   -1.311509   -2.435932
N     -1.912090    4.612438   -2.700885
N      0.117104    3.903027   -2.461265
N      0.607843    0.274433    0.320305
N      3.262659   -0.361661    2.431663
N      4.460570   -1.860939    1.118914
N     -2.259075   -0.292537   -0.031188
O      3.285820   -3.190192   -0.331387
O     -4.953166   -1.565640   -2.224265
O      1.427551    1.617317    1.986059
O     -2.131567    1.195738   -1.803124
O      5.587114   -0.281530    2.573086
O     -0.003605    0.385189   -0.000000
O     -0.001532    0.374352   -0.000000
O     -0.006797    0.375678   -0.000000
O     -0.000429    0.387124   -0.000000
H      6.443466   -2.384795    1.574063
H      5.723595   -3.365437    0.274444
H      6.207538   -1.682483   -0.073504
H     -3.494342   -0.895035    2.516384
H     -2.786961   -2.527758    2.308163
H     -3.925036   -2.786196    0.198452
H     -5.037412   -1.563129    0.998917
H     -1.426391   -0.225208    1.924694
H     -1.085601   -1.781846    0.964337
H     -0.774422    2.779349    0.571115
H      0.911113    2.944338   -0.005740
H      1.204968   -1.910249    0.323513
H      1.601358   -2.857160    1.818577
H     -2.715213    3.725010   -0.951902
H     -0.467098    5.145764   -4.164987
H      1.380686   -0.950050    2.983118
H      0.370016    0.910319   -1.585078
H     -4.284320    0.151463   -0.182190
H     -2.732684   -1.655091   -3.416731
H      1.131148    3.726803   -2.622126
H     -5.037307   -2.147104   -3.070090
H      0.719431    2.275449    2.232110
H      5.581469    0.299605    3.405460
H     -0.808621   -0.193909   -0.000000
H      0.812226   -0.191280    0.000000
H      0.810705   -0.186667    0.000000
H     -0.809173   -0.187685   -0.000000
H      0.819047   -0.185513    0.000000
H     -0.812250   -0.190165   -0.000000
H      0.795126   -0.193412    0.000000
H     -0.794698   -0.193712   -0.000000
