20

C     -0.016107   -1.433143   -0.389721
C     -1.421660   -0.911262   -0.260643
C      0.114945    0.837507    0.399252
C      0.793741   -0.172206   -0.484840
C     -1.246914    0.262416    0.678433
C      2.191646   -0.355113   -0.047123
N     -2.264419    1.285895    0.446920
O      2.638858   -1.440590    0.354916
O      3.028080    0.752203   -0.095655
H      0.304611   -2.023548    0.491597
H      0.056738   -2.047664   -1.301840
H     -1.694905   -0.479888   -1.255046
H     -2.135037   -1.648183    0.103623
H      0.676728    0.950801    1.337623
H      0.030520    1.776127   -0.174792
H      0.797066    0.162228   -1.551802
H     -1.373347   -0.098197    1.706340
H     -2.165280    1.993103    1.200201
H     -2.150078    1.736308   -0.496642
H      3.834815    0.853205    0.506473
