20

C     -1.970050    1.390186    0.428439
C      1.998350   -0.465811    0.366023
C     -1.692240    0.162200   -0.365075
C      0.773278    0.359303   -0.043247
C     -0.447316   -0.539619    0.087585
O     -3.000902    1.514175    1.071673
O      3.139049    0.342759    0.200573
O     -2.759359   -0.723492   -0.225811
O      0.913047    0.739948   -1.370598
O     -0.266395   -1.662850   -0.713660
H     -1.266570    2.211115    0.459586
H      2.129490   -1.328299   -0.298274
H      1.915565   -0.824051    1.394228
H     -1.566414    0.407999   -1.444210
H      0.648880    1.216134    0.619224
H     -0.574784   -0.895242    1.119871
H      3.566850    0.549292    1.050895
H     -3.036471   -1.139877   -1.065352
H      1.472711    0.074968   -1.876675
H      0.023281   -1.388837   -1.625820
