45

C     -1.375672   -2.343423   -2.174875
C     -1.078049    4.141425    0.994948
C      5.531677    0.339821   -0.445560
C      4.505893   -0.297112   -1.120351
C      5.300654    0.985007    0.745843
C      3.239336   -0.273991   -0.574518
C      4.003682    0.979621    1.255285
C     -3.205592   -1.896377   -0.092774
C     -3.266884   -0.837125   -1.202417
C     -1.230437   -1.603953    1.430125
C      2.972474    0.363304    0.617778
C     -1.741785   -2.163596    0.120398
C     -1.858432   -0.260299   -1.080261
C     -0.700485   -0.204239    1.119806
C     -1.735992    0.452482    0.233321
C      1.622095    0.385380    1.195359
C     -1.475218    1.904201    0.050564
N     -1.088463   -1.514026   -1.019389
O      1.430860    0.980948    2.286282
O     -1.390359    2.352807   -1.119811
O     -1.325752    2.761075    1.102880
O      0.567616   -0.242337    0.547812
Cl     0.683724    0.000000    0.000000
H     -0.470037   -2.992722   -2.355591
H     -1.629473   -1.753807   -3.071041
H     -2.203360   -3.059194   -1.993419
H     -2.016962    4.717648    0.758584
H     -0.343619    4.411164    0.230192
H     -0.791817    4.500118    2.021847
H      6.522015    0.302906   -0.904458
H      4.724200   -0.798793   -2.062207
H      6.102745    1.480814    1.269679
H      2.419698   -0.765989   -1.084860
H      3.836752    1.491107    2.193316
H     -3.713240   -1.497010    0.787506
H     -3.748709   -2.772246   -0.496252
H     -4.036620   -0.078503   -0.965901
H     -3.428416   -1.296703   -2.189699
H     -2.010894   -1.524635    2.198117
H     -0.354630   -2.202948    1.759961
H     -1.594352   -3.265342    0.099062
H     -1.571922    0.345013   -1.942746
H     -0.686930    0.355563    2.067820
H     -2.705596    0.393966    0.809645
H     -0.683724    0.000000    0.000000
