42

C     -3.037315    3.775800    1.006009
C     -3.724743    2.874356    0.232680
C     -1.725024    3.480871    1.332780
C     -3.077120    1.711796   -0.185921
C     -1.106402    2.337018    0.915576
C     -3.555967   -2.972175   -1.482233
C     -2.316587   -2.904158   -2.094710
C      4.990064    0.133153    0.548802
C      4.419407   -0.940906    1.444664
C     -3.111079   -1.057938   -0.112032
C     -1.790091    1.397350    0.123850
C     -3.946211   -2.066057   -0.507947
C     -1.882945   -0.967449   -0.706865
C     -1.489090   -1.896437   -1.695420
C      4.163482    1.356043    0.637402
C      3.037308   -1.284140    1.052416
C     -1.121322    0.165394   -0.221608
C      0.907966   -1.578124   -1.671745
C      1.055331   -1.099649   -0.278091
Cl    -5.512961   -2.141974    0.270916
N     -0.197073   -1.927039   -2.295473
N      0.178989    0.059471    0.004763
O      3.140245    1.451033    1.364437
O      4.521331    2.453272   -0.108728
O      2.452816   -2.177592    1.735801
O      2.076598   -1.667429   -2.402300
O      2.360481   -0.691280   -0.003296
H     -3.531320    4.680798    1.335758
H     -4.743059    3.007021   -0.075454
H     -1.170072    4.194941    1.947825
H     -3.658629    1.075629   -0.854791
H     -0.100317    2.114576    1.168090
H     -4.267925   -3.761284   -1.762292
H     -2.076013   -3.637326   -2.839877
H      6.003640    0.397610    0.894914
H      4.988735   -0.209675   -0.509669
H      5.095190   -1.825244    1.427703
H      4.442623   -0.559997    2.496474
H     -3.358236   -0.356117    0.701442
H      0.710642   -1.895334    0.430011
H      3.843622    3.144639   -0.398889
H      2.111028   -2.193446   -3.283437
