20

C     -2.632936    0.976875    0.236622
C     -0.796444   -1.420897    0.068488
C      3.352107   -0.481468   -0.223574
C     -1.138087    1.033416    0.420640
C     -0.399685   -0.016993   -0.331171
C      1.046806    0.128534   -0.008582
O      1.443660    1.002082    0.801947
O      2.004034   -0.689759   -0.587238
H     -3.080721    0.037285    0.639397
H     -2.952003    1.194669   -0.787049
H     -3.051331    1.798223    0.890439
H     -1.192692   -1.480732    1.098362
H     -1.528481   -1.860595   -0.643039
H      0.099078   -2.083373    0.022363
H      3.967118   -1.386907   -0.328524
H      3.726470    0.344690   -0.894976
H      3.415131   -0.118678    0.834404
H     -0.932677    0.925795    1.494676
H     -0.799379    2.019089    0.073446
H     -0.549969    0.078745   -1.437025
