63

C      5.464606   -1.268589   -0.825548
C      2.792016    0.025235   -1.616834
C     -2.155318   -3.878115    0.544579
C      1.471045    3.129546    1.392616
C      4.970481   -0.753327    0.481502
C     -4.201459    0.473574   -1.965246
C     -4.373574    1.866862   -1.965914
C      3.506137   -0.640264    0.685204
C     -0.505364    0.154452   -1.605884
C     -0.000618    1.365875   -1.385344
C     -2.168643   -0.359658    1.725479
C     -2.414277   -1.807500    1.624720
C     -2.957110   -1.538985   -1.138272
C      0.615710   -0.947382    0.220506
C     -3.250231   -0.081174   -1.144439
C     -3.588988    2.686696   -1.145013
C      1.344950    0.390689    0.428042
C     -1.571800   -1.846376   -0.610865
C     -2.534087    0.783205   -0.376823
C     -2.627917    2.126139   -0.316448
C     -0.747210    1.522464    0.906565
C      2.729158    0.315684   -0.171069
C     -0.711460   -0.659510   -0.341430
C     -1.494396    0.262907    0.583238
C      0.488006    1.542133    0.039894
N     -1.661115   -2.546413    0.669962
O     -3.748484    4.065164   -1.137133
O      3.411824    1.559132   -0.019070
O      1.134210    2.764486    0.099351
O     -1.669384    2.592836    0.610838
H      6.264565   -2.069643   -0.677965
H      5.919545   -0.454264   -1.429345
H      4.687347   -1.788773   -1.388555
H      3.830653    0.275347   -1.986231
H      2.185193    0.813601   -2.165382
H      2.555149   -0.975268   -1.955254
H     -2.609632   -4.088065   -0.455815
H     -2.855514   -4.089777    1.363310
H     -1.278757   -4.570455    0.712977
H      2.017984    4.092286    1.340911
H      2.020738    2.420014    1.984408
H      0.532064    3.401941    1.975148
H      5.441192   -1.430052    1.271504
H      5.473644    0.241209    0.737119
H     -4.821585   -0.131035   -2.610953
H     -5.123020    2.340860   -2.606676
H      3.361500   -0.389326    1.787281
H      3.059519   -1.656142    0.494521
H     -0.744283   -0.213478   -2.581943
H      0.064986    2.148858   -2.117347
H     -3.189480    0.141373    1.830095
H     -1.692421   -0.142258    2.715071
H     -3.494465   -2.075855    1.495663
H     -2.170513   -2.283233    2.630262
H     -3.083533   -1.978426   -2.162734
H     -3.708583   -2.032363   -0.505988
H      1.195789   -1.542813   -0.544580
H      0.544430   -1.531249    1.153098
H      1.502322    0.459819    1.541620
H     -1.065976   -2.513967   -1.317303
H     -0.531911    1.565242    1.983202
H     -3.185083    4.658818   -0.547103
H      3.351428    2.097283   -0.836391
