20

C     -1.491338    1.267540   -0.849855
C      1.574447    0.612407   -0.928169
C     -1.463126   -0.107708   -0.361572
C      0.977017   -0.676043   -0.412211
C     -0.234549   -0.451602    0.443865
O     -1.362482    2.217227   -0.113062
O      1.851468    1.487575    0.114831
O     -1.626960   -1.047101   -1.355151
O      0.692096   -1.565511   -1.435907
O      0.021551    0.426251    1.465716
H     -1.631006    1.454082   -1.899561
H      2.544741    0.373611   -1.408931
H      0.954846    1.109470   -1.685244
H     -2.335225   -0.232412    0.340651
H      1.760206   -1.154972    0.218616
H     -0.473031   -1.444583    0.919728
H      2.464941    1.074627    0.765241
H     -2.160230   -1.827193   -1.103075
H      0.695270   -2.471759   -1.034860
H     -0.758637    0.956094    1.760694
