35

C      4.481574   -0.565903   -1.717237
C      2.987540   -0.435340   -1.441344
C      2.858996    0.269911   -0.120627
C      1.433025    0.478787    0.295886
C      0.715309   -0.838759    0.435885
C     -1.983314    1.371452    0.644743
C     -2.139716    0.788690    2.058043
C     -2.718978   -0.687485   -0.551291
C     -1.525102    0.137466   -0.125723
C     -0.719657   -0.673152    0.856449
C     -0.865858    0.025586    2.146225
C     -3.663220    0.015438   -1.423299
O     -0.152979    0.041210    3.137411
O     -4.557651    0.813260   -0.979233
O     -3.656413   -0.136045   -2.823131
H      4.712366   -0.515284   -2.785958
H      4.911465   -1.485624   -1.282545
H      5.023860    0.280713   -1.233768
H      2.457938    0.057762   -2.260795
H      2.569287   -1.469370   -1.344449
H      3.356832    1.256692   -0.176719
H      3.369360   -0.386958    0.641150
H      1.330342    1.127190    1.174420
H      0.941197    1.036822   -0.554676
H      1.217471   -1.465292    1.200237
H      0.720034   -1.385657   -0.506382
H     -2.888312    1.830474    0.267264
H     -1.163511    2.114896    0.718331
H     -2.200851    1.605915    2.799791
H     -2.971848    0.069932    2.107014
H     -3.305265   -0.964608    0.375802
H     -2.403919   -1.660893   -0.974086
H     -0.956321    0.448093   -1.006236
H     -1.137374   -1.696134    0.966989
H     -4.076306    0.596215   -3.379379
