43

C     -2.375935   -2.623273   -1.445051
C     -2.800973    3.945254   -0.709852
C      6.101064   -0.402983   -0.648823
C      5.931364    0.602849    0.272868
C      5.007331   -1.108828   -1.118525
C      4.660525    0.889355    0.713922
C      3.745247   -0.797091   -0.656252
C     -3.104929   -1.468105    1.066911
C     -3.312077   -0.286507    0.173476
C     -0.748691   -1.048454    1.494605
C      3.569196    0.199777    0.258376
C     -1.695512   -1.904802    0.722368
C     -2.148431   -0.314241   -0.793799
C     -0.199188    0.120710    0.738293
C     -1.035185    0.598254   -0.385902
C      2.235621    0.544226    0.760265
C     -1.616827    1.958879   -0.102757
N     -1.633894   -1.668621   -0.702609
O      2.079036    1.455573    1.595675
O     -1.463189    2.417253    1.057469
O     -2.290854    2.666182   -1.087685
O      1.139416   -0.136688    0.313297
H     -3.105579   -2.081295   -2.092123
H     -1.681608   -3.139511   -2.144438
H     -2.963867   -3.332382   -0.830294
H     -3.612657    3.812204    0.060017
H     -2.001807    4.519118   -0.209606
H     -3.159627    4.524289   -1.572509
H      7.113408   -0.606200   -0.977851
H      6.805141    1.162765    0.644545
H      5.207783   -1.886847   -1.841560
H      4.520680    1.670114    1.430570
H      2.888964   -1.350140   -1.024368
H     -3.840226   -2.275530    0.915634
H     -3.098715   -1.193009    2.151945
H     -3.227920    0.635905    0.781517
H     -4.292640   -0.336752   -0.373650
H     -1.249945   -0.753090    2.439913
H      0.134291   -1.671657    1.823660
H     -1.531996   -2.967063    0.935398
H     -2.465040   -0.058887   -1.820423
H     -0.104733    0.963552    1.475875
H     -0.377022    0.725696   -1.288520
