75

C     -4.588818   -2.764635    0.293040
C     -4.244668   -1.413931   -1.680675
C     -4.576215   -0.400001    0.515940
C     -2.091069   -3.008510   -0.727375
C     -3.146350    2.477736   -0.874574
C      5.250910   -3.165927    1.285810
C      4.592787   -2.180157    2.178335
C      2.744706    3.463391    1.033198
C      1.984223    4.616485    0.766799
C      0.133141    0.536369    1.383746
C     -1.175206    1.219439    1.023718
C      1.682377    0.689186   -2.093040
C      2.984760    0.082279   -1.723778
C      3.053563    0.968199    0.799242
C      0.018370   -1.135017   -0.340028
C      4.132832   -1.470459   -0.300306
C      3.964595   -2.507063    0.807782
C      2.371007    2.243708    0.491070
C      0.844438    4.543856   -0.044366
C     -1.429230   -0.694166   -0.564411
C      2.265712   -0.266847    0.453816
C      1.261086    2.279032   -0.280801
C      0.457434    3.322159   -0.595409
C     -0.583307    1.396585   -1.338149
C     -3.855760   -1.484258   -0.248721
C     -2.398467   -1.631361    0.019519
C      0.832438    0.014702    0.145367
C      0.829168    1.052680   -0.955181
C     -1.576539    0.794920   -0.360950
N      2.902119   -0.897489   -0.697682
O      0.092557    5.668078   -0.309543
O     -2.146487   -1.986557    1.337215
O     -2.792454    1.191264   -0.782333
O     -0.564371    2.812932   -1.407167
H     -4.404669   -3.615386   -0.353578
H     -5.661661   -2.505337    0.161886
H     -4.410083   -2.884302    1.357643
H     -3.471870   -0.960616   -2.341199
H     -4.594165   -2.401535   -2.091186
H     -5.134305   -0.756329   -1.775561
H     -5.414472   -0.919035    1.095565
H     -5.167505    0.290090   -0.129969
H     -4.003056    0.072980    1.312911
H     -0.993735   -3.113062   -0.819601
H     -2.413020   -3.825865   -0.058071
H     -2.662745   -3.055883   -1.645631
H     -3.050845    2.981456    0.131620
H     -4.285703    2.482914   -1.012653
H     -2.790551    3.100589   -1.682784
H      5.229692   -4.216881    1.599615
H      6.207914   -2.829607    0.795966
H      5.059858   -1.176250    2.257835
H      4.037082   -2.508561    3.081822
H      3.606159    3.548806    1.655517
H      2.285283    5.563398    1.193171
H      0.762971    1.198527    2.007207
H     -0.094047   -0.338356    2.023377
H     -1.919928    1.008340    1.811129
H     -0.991324    2.291167    1.054314
H      1.922104    1.649741   -2.650663
H      1.140771    0.095673   -2.889628
H      3.721287    0.898178   -1.558609
H      3.374629   -0.412388   -2.676593
H      3.202034    0.977856    1.920638
H      4.070177    1.014046    0.389393
H      0.491586   -1.543204   -1.254456
H      0.093827   -1.929486    0.423177
H      4.577345   -2.065382   -1.156036
H      4.912124   -0.772414    0.061064
H      3.038000   -3.099008    0.848479
H     -1.546396   -0.779476   -1.697281
H      2.356632   -0.988444    1.281629
H     -0.833852    1.026125   -2.349704
H     -0.724669    5.688110   -0.874447
H     -2.750157   -1.557811    1.984882
