75

C     -4.666376    0.236854    0.801154
C     -4.408011    2.198648   -0.661996
C     -4.213317    2.416632    1.707516
C     -1.882141    2.788865    0.285943
C     -3.264729   -1.109183   -2.071567
C      5.460676    3.110851    0.775757
C      5.423176    2.846652   -0.664769
C      2.829652   -3.797512    0.634958
C      2.061154   -4.913753    0.242298
C     -0.004168   -1.231736    1.502834
C     -1.335941   -1.638234    0.967470
C      1.594728   -0.561102   -1.888104
C      2.551166    0.519708   -1.530227
C      3.074063   -1.275737    0.749442
C     -0.100335    0.816564    0.172510
C      3.205520    2.021004    0.266388
C      4.687378    1.890768    0.271078
C      2.416420   -2.525979    0.313384
C      0.872501   -4.720258   -0.475888
C     -1.561698    0.517722   -0.262460
C      2.120799   -0.074334    0.785827
C      1.256439   -2.464992   -0.385693
C      0.435111   -3.437232   -0.811596
C     -0.621556   -1.430698   -1.338217
C     -3.842642    1.456602    0.538234
C     -2.382906    1.338791    0.586568
C      0.684360   -0.394672    0.463188
C      0.753645   -1.168787   -0.847643
C     -1.678256   -0.968141   -0.358428
N      2.488451    0.904781   -0.190910
O      0.107294   -5.801501   -0.866650
O     -2.006478    1.162770    1.934129
O     -2.849095   -1.484471   -0.832637
O     -0.649987   -2.869828   -1.472611
H     -4.212324   -0.570895    1.350982
H     -5.130977   -0.086729   -0.178136
H     -5.599131    0.486199    1.411138
H     -4.617350    3.269841   -0.470486
H     -5.413592    1.760258   -0.897404
H     -3.819718    2.147899   -1.566391
H     -3.691224    2.181476    2.624071
H     -5.302869    2.287060    1.879603
H     -4.092012    3.466465    1.367188
H     -1.846930    3.386072    1.217582
H     -2.582648    3.193462   -0.458948
H     -0.899141    2.800213   -0.175579
H     -3.428026   -0.029920   -2.197914
H     -4.298793   -1.557643   -2.196099
H     -2.689858   -1.557701   -2.908446
H      4.869659    3.941597    1.167606
H      6.406284    2.928785    1.325961
H      4.825279    3.526533   -1.307991
H      6.364355    2.524510   -1.140920
H      3.734806   -3.941815    1.184296
H      2.348491   -5.917204    0.472040
H     -0.068598   -0.640866    2.438073
H      0.554903   -2.145949    1.782138
H     -1.299383   -2.744210    0.694492
H     -2.146619   -1.595233    1.709535
H      0.989248   -0.230631   -2.783285
H      2.236023   -1.412153   -2.310727
H      2.321849    1.428962   -2.156907
H      3.621072    0.211920   -1.748441
H      3.453726   -1.425893    1.779920
H      3.928603   -1.114565    0.094377
H     -0.064994    1.447439    1.083306
H      0.436255    1.389943   -0.618127
H      2.919247    2.906624   -0.338332
H      2.839004    2.261616    1.297558
H      5.188936    0.905479    0.328656
H     -1.608879    0.890343   -1.330022
H      2.155118    0.399617    1.771072
H     -0.752708   -0.958202   -2.332525
H      0.396145   -6.741794   -0.641111
H     -2.578123    0.570028    2.438917
