43

C     -3.524479   -2.558726    1.273698
C     -2.214196    3.789886    0.624122
C      6.132459    0.760633    0.549111
C      5.758658    1.264517   -0.679442
C      5.223792    0.128513    1.352079
C      4.458242    1.116644   -1.074566
C      3.920121   -0.016216    0.948797
C     -2.615753   -1.338244   -1.334470
C     -3.278317   -0.346105   -0.389464
C     -0.362500   -1.968315   -0.439621
C      3.543028    0.485554   -0.277203
C     -1.838206   -2.260393   -0.422569
C     -2.400056   -0.495941    0.845121
C     -0.150707   -0.479469   -0.286832
C     -1.070259    0.165502    0.680511
C      2.153203    0.323373   -0.691040
C     -1.306707    1.571467    0.271374
N     -2.287519   -1.936271    0.941641
O      1.817164    0.782114   -1.807261
O     -0.858275    1.991747   -0.821010
O     -2.016593    2.470301    1.053738
O      1.208859   -0.311572    0.098606
H     -3.336709   -3.326446    2.062022
H     -4.272663   -1.849580    1.694387
H     -3.997358   -3.099323    0.419481
H     -1.580046    3.982363   -0.264548
H     -1.880588    4.484088    1.430523
H     -3.279606    3.959983    0.343912
H      7.172976    0.889794    0.843147
H      6.509441    1.767402   -1.303306
H      5.517014   -0.268096    2.318545
H      4.150221    1.513240   -2.048925
H      3.203247   -0.509989    1.572233
H     -1.960521   -0.817609   -2.061782
H     -3.404445   -1.867357   -1.901311
H     -3.305828    0.670156   -0.779027
H     -4.280034   -0.729020   -0.127020
H      0.145347   -2.323563   -1.352030
H      0.087342   -2.449964    0.462735
H     -2.058198   -3.311060   -0.680288
H     -2.892556   -0.063376    1.743571
H     -0.229843    0.001376   -1.305036
H     -0.599152    0.207983    1.693926
