40

C     -1.782932    3.766971   -0.062665
C      5.472125    1.501828    0.436483
C      4.455192    1.752901   -0.455262
C      5.300728    0.598822    1.447100
C      3.237961    1.074936   -0.321007
C      4.075970   -0.069164    1.564823
C     -2.786588   -2.701820   -0.092950
C     -3.598062   -1.499779    0.342017
C     -0.658003   -1.914268   -1.102723
C      3.047636    0.165225    0.687062
C     -2.105372   -2.255033   -1.360844
C     -2.912112   -0.387972   -0.422767
C     -0.523603   -1.004775    0.089352
C     -1.632911   -0.054356    0.281431
C      1.781582   -0.526045    0.811841
C     -1.288386    1.350337   -0.054072
N     -2.738937   -0.973545   -1.713495
O      1.575683   -1.384440    1.737856
O     -0.200673    1.552909   -0.645580
O     -2.082689    2.437320    0.241260
O      0.709687   -0.321613   -0.041398
H     -1.662300    4.400696    0.862964
H     -0.909543    3.916122   -0.699049
H     -2.687784    4.206626   -0.569257
H      6.419348    2.036723    0.323033
H      4.597706    2.474873   -1.260120
H      6.111857    0.417958    2.134528
H      2.498600    1.325099   -1.054139
H      3.993052   -0.773712    2.382479
H     -2.030371   -2.887200    0.703039
H     -3.429150   -3.593041   -0.256183
H     -3.571203   -1.341300    1.436308
H     -4.632638   -1.667545   -0.031718
H     -0.274570   -1.386564   -2.003284
H     -0.049254   -2.847092   -0.935212
H     -2.214918   -2.991382   -2.154382
H     -3.547146    0.514696   -0.505732
H     -0.406110   -1.690150    0.981352
H     -1.882228   -0.037152    1.385121
H     -3.669648   -1.186094   -2.106210
