43

C     -4.358576   -0.381761   -0.470363
C     -2.012548    3.541208    1.532528
C      6.098184    1.204673   -0.212831
C      4.959519    1.958717   -0.433458
C      5.997219   -0.130340    0.112561
C      3.704395    1.374676   -0.328416
C      4.736939   -0.667900    0.206006
C     -2.218817   -2.550017   -0.610431
C     -2.354537   -2.213644    0.858109
C     -0.799176   -0.675161   -1.302489
C      3.581264    0.046840   -0.005473
C     -2.224615   -1.180531   -1.247068
C     -2.432035   -0.719599    0.931471
C     -0.155519   -0.672835    0.056605
C     -1.045255   -0.086247    1.092916
C      2.305228   -0.628830    0.121499
C     -1.140027    1.367395    0.921434
N     -2.935281   -0.299561   -0.340811
O      2.290112   -1.846004    0.420525
O     -0.473836    1.925736    0.022601
O     -1.946760    2.156412    1.724359
O      1.084579   -0.008499   -0.068704
H     -4.722403   -1.419888   -0.562685
H     -4.643517    0.165290   -1.397720
H     -4.817474    0.161296    0.371085
H     -1.099715    4.055896    1.881373
H     -2.848654    3.926442    2.144585
H     -2.192845    3.748359    0.473803
H      7.091010    1.633437   -0.287745
H      5.030204    3.024042   -0.693420
H      6.873705   -0.756690    0.293687
H      2.821050    1.950413   -0.497289
H      4.688761   -1.736094    0.467362
H     -3.043116   -3.197525   -0.978198
H     -1.273465   -3.105306   -0.815880
H     -1.575619   -2.663989    1.481624
H     -3.332700   -2.646130    1.193229
H     -0.255097   -1.325793   -2.019755
H     -0.855419    0.379080   -1.668864
H     -2.653686   -1.179258   -2.253027
H     -3.110349   -0.398820    1.747613
H     -0.008097   -1.757637    0.328077
H     -0.733030   -0.371851    2.122410
