39

C     -2.579893    1.760090    0.914860
C     -2.469033   -2.072179   -0.437240
C     -3.357640   -1.071675    0.213774
C     -0.983476   -1.903330   -0.267083
C     -3.572289    0.095461   -0.680751
C     -0.186611   -1.929640    0.743496
C      2.772060    1.530445   -0.197954
C      0.512310    1.128521    0.549680
C      4.422792   -0.181245   -0.329508
C     -2.590839    1.232612   -0.486426
C      1.887553    0.580949    0.264994
C      4.057647    1.136100   -0.497811
C      1.284457   -1.764690    0.929822
C      3.516948   -1.106560    0.134863
C     -0.109001    1.401050   -0.768117
C      2.192284   -0.755450    0.455365
O      4.985770    2.071401   -0.970843
O      1.923186   -2.665898    1.647323
O      3.935865   -2.439292    0.290565
O      0.580582    2.040834   -1.599340
O     -1.351866    0.979382   -1.052416
H     -1.805373    2.574632    0.936944
H     -2.325538    1.050314    1.697026
H     -3.560105    2.248225    1.093849
H     -2.856498   -3.081114   -0.191535
H     -2.653515   -2.037619   -1.566222
H     -4.352596   -1.550655    0.381652
H     -3.023920   -0.795036    1.244358
H     -0.670539   -1.723925   -1.366537
H     -3.591007   -0.244891   -1.721585
H     -4.599058    0.510707   -0.470270
H     -0.520065   -2.115695    1.842609
H      2.487466    2.580735   -0.334026
H     -0.061660    0.468773    1.195610
H      0.693621    2.097040    1.101018
H      5.438180   -0.489701   -0.567031
H     -3.036098    2.075478   -1.106768
H      4.696528    3.032031   -1.086736
H      4.869369   -2.666185    0.060391
