48

C      3.692973    0.076930    2.165820
C      0.455249    3.125363    1.533154
C      4.213316    0.016445    0.808896
C     -4.736672   -2.357141   -0.667448
C     -3.854060   -3.065438   -1.464952
C     -4.312314   -1.216470   -0.007424
C     -2.546795   -2.628238   -1.599129
C     -2.756335    1.356805    1.256372
C     -1.774212    2.515545    1.035468
C      1.259312    0.443693    0.794436
C      1.481546   -1.493601   -0.801936
C      4.236111   -0.156679   -1.578543
C      3.497592   -0.112149   -0.283227
C      2.035711   -0.181414   -0.278130
C     -2.998457   -0.816698   -0.170202
C     -2.327296    0.248167    0.352860
C     -2.100532   -1.494037   -0.951074
C     -0.015476    1.172195    0.234220
C      0.262757   -1.325906   -1.654692
C     -1.031066    0.187669   -0.126843
N     -0.444085    2.021240    1.297923
N     -0.890525   -0.872824   -0.922723
O      3.545193   -0.279055   -2.607041
O      0.480908   -0.488762   -2.767135
H      4.548246   -0.357949    2.812279
H      3.642775    1.111316    2.616160
H      2.869609   -0.571419    2.435842
H      1.173183    2.918301    2.342695
H     -0.138616    4.046714    1.717764
H      1.023388    3.279513    0.585351
H      5.321522    0.085293    0.639851
H     -5.752961   -2.685688   -0.555149
H     -4.210520   -3.966561   -1.979191
H     -4.977147   -0.641184    0.622730
H     -1.863510   -3.184495   -2.222111
H     -3.754231    1.738739    1.011233
H     -2.630529    1.024176    2.291396
H     -2.043813    3.399209    1.616753
H     -1.819043    2.770211   -0.052039
H      0.806007   -0.240467    1.542023
H      1.811361    1.300785    1.215066
H      2.282389   -1.916246   -1.461936
H      1.278240   -2.225605   -0.035925
H      5.276702   -0.086613   -1.589789
H      1.774982    0.502735   -1.195540
H      0.373236    1.726595   -0.656054
H      0.041993   -2.325856   -2.104325
H     -0.406104   -0.377139   -3.195733
