46

C     -6.139096    0.672340   -0.927087
C      1.548645   -0.860288   -3.125728
C     -4.716741    0.232593   -1.177089
C     -3.118465   -0.972454    1.154182
C     -2.318681   -0.991157   -0.109223
C      4.760121   -0.600295   -0.530158
C      3.701054   -0.681760   -1.376335
C     -4.023109    0.243779    1.060138
C      3.341053    0.463290    1.082765
C     -1.392947    1.283993    0.064146
C     -2.442971    0.432179   -0.618102
C      4.588352   -0.024206    0.712302
C      2.252830    0.390242    0.239140
C      2.449090   -0.189010   -0.996271
C      0.938157    0.894994    0.607077
N      6.061929   -1.285753    2.823491
N     -0.056285    0.815112   -0.202207
N     -3.776021    0.812122   -0.242509
O      0.680697    1.488122    1.843639
O      5.678717    1.301503    2.684244
O      7.215410    0.293778    1.059325
O      1.347243   -0.258348   -1.840730
S      5.938664    0.096066    1.827062
H     -6.462206    1.356184   -1.750187
H     -6.807245   -0.204961   -0.981710
H     -6.261880    1.177913    0.057757
H      0.630968   -0.851322   -3.732947
H      1.886248   -1.890547   -2.913530
H      2.360803   -0.353761   -3.674837
H     -4.444287    0.496636   -2.223355
H     -4.689894   -0.879580   -1.145720
H     -3.762083   -1.881214    1.197275
H     -2.481019   -0.868722    2.053799
H     -2.683699   -1.724988   -0.839096
H     -1.238051   -1.188981    0.062430
H      5.741022   -0.970647   -0.793624
H      3.813377   -1.136748   -2.373706
H     -3.816950    0.970145    1.878121
H     -5.079890   -0.058246    1.130606
H      3.216134    0.910458    2.056018
H     -1.458030    2.303664   -0.415784
H     -1.597937    1.447105    1.119156
H     -2.273091    0.449129   -1.707279
H      6.997736   -1.761312    2.734945
H      5.989947   -0.992738    3.817904
H     -0.097618    1.180515    2.431693
