22

C      3.696025   -1.093798    0.032021
C     -3.342512   -0.569029   -0.086327
C     -2.304648   -1.324698    0.363201
C     -3.088803    0.705752   -0.511240
C     -0.995268   -0.827014    0.398637
C     -1.816614    1.206957   -0.483157
C     -0.747996    0.435375   -0.022544
C      0.591896    1.058928   -0.020336
C      1.662456    0.138680    0.382458
O      0.818382    1.639067   -1.271214
O      1.632523   -0.369184    1.525785
O      2.726011   -0.199665   -0.463458
H      3.211405   -1.766638    0.762918
H      4.098945   -1.755877   -0.770692
H      4.562741   -0.546387    0.458181
H     -4.342085   -0.940599   -0.116435
H     -2.439754   -2.350925    0.716762
H     -3.893940    1.347711   -0.880502
H     -0.193685   -1.465319    0.760114
H     -1.614566    2.219384   -0.820523
H      0.528786    1.911818    0.713916
H      1.250701    2.545463   -1.164739
