48

C     -4.270090   -1.787392    0.547464
C     -0.189592    3.679768   -0.349243
C     -4.403240   -0.475855   -0.081539
C      4.635959   -2.356601    1.022877
C      3.774035   -3.315183    0.522111
C      4.233269   -1.058323    1.062308
C      2.520990   -2.955879    0.068552
C      2.762638    1.861617    0.926521
C      1.879020    2.864049    0.276543
C     -1.191569    0.888176    0.419470
C     -1.494557   -1.442124   -0.093489
C     -3.748325    1.544892   -1.094867
C     -3.374443    0.229916   -0.485785
C     -1.959700   -0.102554   -0.483151
C      2.959598   -0.706860    0.599131
C      2.302175    0.504156    0.521331
C      2.077438   -1.631768    0.095400
C      0.068141    1.365925   -0.248296
C     -0.159760   -1.770495   -0.837328
C      1.072194    0.284495   -0.013723
N      0.465067    2.601838    0.367731
N      0.944479   -1.018180   -0.269561
O     -2.837086    2.281944   -1.511479
O     -0.316520   -1.513723   -2.195303
H     -5.224924   -1.891013    1.190502
H     -3.495923   -1.887617    1.318458
H     -4.389749   -2.602749   -0.163163
H     -1.215793    3.867192    0.037786
H     -0.282372    3.461777   -1.436109
H      0.413707    4.591841   -0.211043
H     -5.427079   -0.051678   -0.229891
H      5.628035   -2.599830    1.388432
H      4.138453   -4.340962    0.509781
H      4.876795   -0.256144    1.449735
H      1.861321   -3.708037   -0.317605
H      3.793846    2.032507    0.600112
H      2.663301    1.903669    2.043509
H      2.055464    3.849015    0.766143
H      2.180056    2.997491   -0.782770
H     -1.889282    1.732876    0.623480
H     -0.877817    0.383678    1.353795
H     -2.150775   -2.254713   -0.488558
H     -1.197241   -1.569731    0.962542
H     -4.745361    1.887586   -1.193267
H     -1.564744    0.111335   -1.519788
H     -0.064422    1.450067   -1.341358
H     -0.006261   -2.846724   -0.702808
H     -0.829355   -2.231675   -2.623590
