22

C      2.994998    0.534620    0.374691
C      2.403513   -0.633232   -0.054635
C      2.211762    1.629066    0.658689
C      1.044783   -0.742472   -0.210118
C      0.849417    1.504755    0.498022
C     -1.853835   -0.761401    0.845778
C      0.227310    0.350949    0.070521
C     -1.237468    0.251537   -0.091175
C     -1.648735   -0.029569   -1.469643
O     -1.376681   -2.034497    0.674210
O     -0.779752   -0.157772   -2.359850
O     -2.977671   -0.155610   -1.804384
H      4.072132    0.615084    0.495964
H      3.063064   -1.475297   -0.268072
H      2.645999    2.561229    0.998041
H      0.605089   -1.670339   -0.548556
H      0.185023    2.353257    0.713130
H     -1.687671   -0.454380    1.906515
H     -2.941583   -0.743135    0.674696
H     -1.666704    1.240323    0.190622
H     -0.806951   -2.355803    1.416256
H     -3.326040    0.172689   -2.710701
