52

C      6.741065    2.120429    1.244066
C     -5.172428   -1.581505   -0.567176
C     -6.032174   -0.425095   -1.022785
C     -2.480309    2.477446   -0.178986
C     -1.893937    1.205399   -0.699787
C     -4.319295   -1.268386    0.611927
C      4.625573   -1.888468   -0.948258
C      2.718179   -0.733957    0.150113
C      5.996672   -1.926499   -1.227121
C      1.828225   -1.616898   -0.253965
C     -5.037796    0.712534   -1.301988
C     -3.966181    2.388402    0.062239
C      5.004164    0.127187    0.281202
C     -1.339334   -0.204046    1.240231
C      4.126317   -0.853736   -0.188443
C     -2.301900   -0.010771    0.094147
C     -3.717597    0.097164    0.617387
C      6.856550   -0.962660   -0.765164
C      6.343319    0.064435   -0.007698
C      0.399593   -1.455873    0.114983
N     -4.501658    1.090026   -0.046858
O      8.211389   -0.987470   -1.032481
O     -0.452743   -2.291937   -0.265795
O      7.219931    1.042766    0.460481
O     -0.023863   -0.391775    0.879539
H      6.085626    2.739343    0.595120
H      6.168251    1.708650    2.089563
H      7.618869    2.683330    1.631312
H     -4.592034   -1.956287   -1.443024
H     -5.880417   -2.408787   -0.304954
H     -6.666634   -0.105748   -0.169515
H     -6.583769   -0.713131   -1.915766
H     -2.295674    3.263560   -0.963664
H     -1.930411    2.843115    0.719642
H     -2.041371    1.078284   -1.792923
H     -0.774216    1.292518   -0.574374
H     -4.930357   -1.483059    1.532863
H     -3.498009   -2.041224    0.643118
H      3.997330   -2.665141   -1.332515
H      2.383088    0.108680    0.755508
H      6.372834   -2.751878   -1.829121
H      2.082270   -2.458717   -0.843822
H     -4.284073    0.250316   -2.002277
H     -5.539621    1.563392   -1.762483
H     -4.150541    2.755932    1.113757
H     -4.514537    3.090041   -0.602178
H      4.609843    0.933996    0.874516
H     -1.425653    0.745275    1.851982
H     -1.747493   -0.983979    1.920378
H     -2.228438   -0.886636   -0.571430
H     -3.639438    0.415311    1.684511
H      8.572810   -1.743866   -1.587196
