46

C     -0.413478   -1.959877   -1.556924
C     -1.441515   -0.004055   -2.705590
C     -3.190695    1.754410    3.057804
C      4.914676   -2.098017    0.857360
C      3.707163   -2.386883    1.438118
C      5.050159   -1.074303   -0.040986
C      2.639455   -1.612602    1.086183
C     -3.660822    1.085045    0.730130
C     -3.123882    0.505200   -0.539317
C     -1.289824    1.131729    1.582581
C     -1.572770   -1.025057   -1.589656
C     -2.652322    1.697266    1.619969
C     -1.926082   -0.405691   -0.280523
C      3.959804   -0.262574   -0.418063
C      2.771617   -0.552334    0.158042
C     -0.862484    0.487461    0.300308
C      4.152322    0.799600   -1.364847
C      1.533297    0.171770   -0.104009
O      5.368227    0.924012   -1.809758
O      3.302915    1.712303   -1.894358
O      1.409042    1.134092   -0.878166
O      0.345156   -0.198319    0.539673
H     -0.155281   -2.225595   -0.507363
H     -0.703129   -2.911227   -2.043707
H      0.467499   -1.598804   -2.125991
H     -1.037881   -0.556930   -3.582249
H     -0.808838    0.842117   -2.465026
H     -2.484732    0.302395   -3.007363
H     -4.183143    2.242241    2.979124
H     -2.524875    2.341276    3.702453
H     -3.358451    0.742726    3.463662
H      5.784723   -2.677319    1.100728
H      3.598728   -3.210016    2.160268
H      6.004096   -0.851394   -0.495312
H      1.672010   -1.839840    1.547953
H     -4.185947    0.249392    1.279605
H     -4.477667    1.786778    0.449120
H     -3.904735    0.005837   -1.111934
H     -2.707396    1.363065   -1.137204
H     -0.522051    1.914021    1.830159
H     -1.203446    0.386853    2.415409
H     -2.479723   -1.638643   -1.878162
H     -2.572359    2.789092    1.330442
H     -2.190891   -1.223219    0.421536
H     -0.658508    1.284118   -0.442378
H      3.612039    2.659905   -2.071742
