21

C      3.096797   -0.206064   -0.070260
C      2.299573   -0.731660    0.922251
C      2.500297    0.584037   -1.033084
C      0.955586   -0.463998    0.932726
C      1.138942    0.860575   -1.030288
C     -1.828192   -0.679464   -0.389816
C      0.345934    0.333224   -0.036493
C     -1.117572    0.592992    0.020501
N     -3.260745   -0.560716   -0.318072
O     -1.462776    0.906592    1.345302
H      4.162237   -0.417774   -0.079264
H      2.721350   -1.355193    1.696576
H      3.107094    1.007493   -1.822241
H      0.301767   -0.859804    1.695916
H      0.674839    1.469357   -1.770844
H     -1.530213   -1.460015    0.346139
H     -1.483904   -0.940911   -1.411092
H     -1.382082    1.388579   -0.686194
H     -3.581448    0.233017    0.277498
H     -3.684211   -1.464019    0.044540
H     -1.973270    1.763751    1.366198
