52

C      6.621604   -2.582988   -0.041685
C     -4.658295   -2.760850    0.044390
C     -5.892975   -1.968692   -0.211359
C     -3.345575    2.188589   -0.033046
C     -2.494227    1.318470    0.860234
C     -3.560728   -1.922405    0.661139
C      4.873517    2.145797    0.154107
C      2.839348    0.835258   -0.247263
C      6.245124    2.220856    0.350065
C      2.038037    1.878040   -0.261354
C     -5.645260   -0.585795   -0.765206
C     -4.315573    1.335608   -0.836838
C      5.038368   -0.192830   -0.039151
C     -1.135407   -0.026073   -0.856176
C      4.252168    0.953854   -0.041602
C     -2.122098    0.027454    0.256254
C     -3.353590   -0.735198   -0.235095
C      6.990224    1.064488    0.345960
C      6.379554   -0.154138    0.149258
C      0.614496    1.661480   -0.477551
N     -4.545689    0.080460   -0.145843
O      8.371811    1.124587    0.541918
O     -0.133646    2.650129   -0.489329
O      7.161140   -1.307351    0.150474
O      0.124976    0.423839   -0.659354
H      6.207035   -2.942259    0.939559
H      5.856974   -2.628339   -0.843663
H      7.444151   -3.281118   -0.297531
H     -4.889501   -3.575114    0.753804
H     -4.267384   -3.259109   -0.874968
H     -6.498974   -2.517792   -0.971299
H     -6.488162   -1.890061    0.718681
H     -2.799777    2.872442   -0.686075
H     -3.984124    2.834670    0.627811
H     -3.214610    1.028026    1.726117
H     -1.707845    1.852318    1.351325
H     -2.629013   -2.534731    0.610116
H     -3.811629   -1.660574    1.695236
H      4.317275    3.072215    0.163003
H      2.413594   -0.184255   -0.400120
H      6.740685    3.160318    0.505109
H      2.397251    2.869980   -0.120199
H     -6.570897    0.013081   -0.519060
H     -5.570791   -0.562369   -1.864842
H     -5.311016    1.833837   -0.920047
H     -3.888493    1.112514   -1.830679
H      4.536174   -1.155229   -0.197234
H     -1.046701   -1.141090   -1.109408
H     -1.601085    0.378333   -1.817707
H     -1.649109   -0.584578    1.098282
H     -3.253792   -1.074958   -1.270882
H      8.922462    0.291254    0.540848
