26

C     -3.230584   -0.176342    0.340472
C      3.301103   -0.606969    0.144571
C     -1.106978   -1.332491   -0.258022
C      0.306343   -1.199160   -0.745854
C     -1.056503    1.030360    0.619591
C     -1.834599   -0.020469   -0.165969
C      2.142505    0.340530    0.051265
C      0.926704    0.084987   -0.314271
C      0.139963    1.341117   -0.261389
C      2.251041    1.747574    0.401194
O      3.317219    2.335784    0.804037
O      1.002427    2.294540    0.212816
H     -3.686295    0.840030    0.408977
H     -3.790347   -0.780743   -0.417510
H     -3.232302   -0.694984    1.325457
H      3.859365   -0.576104   -0.813318
H      3.954631   -0.343374    1.008052
H      2.900598   -1.647432    0.224223
H     -1.722412   -1.995484   -0.894402
H     -1.091558   -1.778833    0.756623
H      0.297868   -1.203730   -1.853641
H      0.924745   -2.052533   -0.410095
H     -0.724869    0.573512    1.572978
H     -1.709089    1.893387    0.771233
H     -1.904843    0.381399   -1.213295
H     -0.234130    1.545429   -1.293721
