15

C      1.943403   -0.381963   -0.172670
C     -0.157734    0.931673    0.131291
C     -1.510909    0.408076    0.562670
C      0.488154   -0.260027   -0.537381
C     -1.580551   -0.956747   -0.015238
O     -2.665071   -1.543410   -0.298197
O     -0.271960   -1.384961   -0.152836
H      2.618370   -0.226761   -1.053090
H      2.200261    0.439382    0.539257
H      2.129283   -1.334658    0.347336
H      0.455764    1.281604    0.995057
H     -0.226768    1.761526   -0.587827
H     -2.307509    1.065107    0.204989
H     -1.513364    0.342429    1.680424
H      0.398633   -0.141271   -1.643786
