16

C     -0.964075    1.191941   -0.564143
C      2.214513    0.291569   -0.048900
C     -0.770710   -1.219601   -0.223090
C     -0.021179    0.092632   -0.144158
O     -1.915427   -1.130532    0.535337
O      1.140311    0.086559   -0.878347
H     -0.456036    1.905464   -1.225896
H     -1.839858    0.772868   -1.095130
H     -1.362879    1.758870    0.301348
H      2.080442    1.282421    0.449064
H      2.261227   -0.469720    0.756917
H      3.191471    0.287034   -0.548247
H     -0.948409   -1.445801   -1.290495
H     -0.121886   -2.039218    0.177016
H      0.198269    0.261867    0.937847
H     -2.685775   -1.626354    0.187322
