12

C      1.792530   -0.701492   -0.056617
C     -1.481739    0.190925   -0.533000
C      0.637797   -0.526651    0.554029
C     -0.212731    0.628523    0.179469
Cl    -0.613959    1.585794    1.645900
H      2.105732   -0.010607   -0.815212
H      2.439189   -1.530005    0.188199
H     -2.242866    1.000829   -0.398137
H     -1.823346   -0.730584   -0.027187
H     -1.251735   -0.024985   -1.579129
H      0.300057   -1.210577    1.322985
H      0.351071    1.328828   -0.481301
