17

C     -1.678536    1.105620    0.755557
C      2.758885   -0.412281   -0.304612
C     -1.447539   -0.958140   -0.648005
C     -0.917948   -0.177857    0.560250
C      0.490325    0.166947    0.234808
Br    -1.233433    0.164913   -2.201712
O      0.849193    1.364411    0.166701
O      1.456280   -0.803159   -0.004543
H     -2.717245    0.903473    1.077970
H     -1.631932    1.667654   -0.195753
H     -1.106477    1.709502    1.495771
H      3.396079   -0.505610    0.592735
H      3.199517   -0.983470   -1.138203
H      2.801928    0.668448   -0.609220
H     -0.779659   -1.840178   -0.745895
H     -2.501882   -1.250172   -0.499809
H     -0.937556   -0.820100    1.463960
