20

C      2.387997   -0.208741    0.977447
C     -2.461685   -0.239443    0.538073
C      0.854298    0.650382   -0.809763
C     -0.635892    0.374456   -1.064831
C      1.094535   -0.398082    0.270228
C     -1.102455    0.359781    0.378958
N     -0.068851   -0.304342    1.099087
H      3.195259   -0.066621    0.249312
H      2.377530    0.602056    1.722110
H      2.622064   -1.168575    1.512843
H     -2.782435   -0.094896    1.580754
H     -3.164944    0.359975   -0.088823
H     -2.520090   -1.300807    0.269741
H      0.936719    1.632500   -0.315616
H      1.462816    0.511931   -1.692659
H     -0.663623   -0.643921   -1.512678
H     -1.102652    1.148490   -1.668408
H      1.130661   -1.385469   -0.250647
H     -1.165067    1.425219    0.694126
H     -0.394185   -1.253892    1.348644
