39

C     -3.559046   -0.540194    0.017295
C      3.161963    0.743453    1.321806
C      3.976317   -0.791087   -0.331620
C     -1.810140    1.809815   -1.097488
C     -1.156508    2.757303    1.004720
C     -1.144981   -2.233448    0.464043
C     -2.600984   -0.876685   -0.837217
C      1.017644   -0.251368   -1.314589
C     -0.229420   -1.098502   -1.478562
C      0.518147    0.330105    0.970959
C      2.837786   -0.153480    0.411157
C     -1.320800    1.561328    0.077648
C      1.439679   -0.486241    0.142384
C     -0.949485    0.213824    0.543904
C     -1.200354   -0.921708   -0.350720
H     -4.614134   -0.496278   -0.311014
H     -3.419767   -0.291134    1.057287
H      2.421508    1.252425    1.904738
H      4.226878    0.995306    1.507762
H      4.735796   -0.023523   -0.532681
H      4.383082   -1.589820    0.353641
H      3.641388   -1.261562   -1.276823
H     -1.988122    1.097392   -1.863484
H     -2.084265    2.855884   -1.373187
H     -0.304078    3.361242    0.682855
H     -1.000319    2.389406    2.038452
H     -2.072737    3.360003    0.907450
H     -0.549818   -3.005686   -0.058317
H     -0.726840   -2.059052    1.473061
H     -2.158258   -2.677092    0.590187
H     -2.872104   -1.112464   -1.866551
H      0.873716    0.804704   -1.521843
H      1.811586   -0.658029   -1.946708
H     -0.709497   -0.829252   -2.437977
H      0.129490   -2.144115   -1.595996
H      0.839005    1.401358    0.828436
H      0.666447    0.099270    2.036053
H      1.288161   -1.577263    0.353392
H     -1.496936    0.045165    1.507550
