14

C      0.355473    0.948479   -0.171698
C      1.483852   -0.070330    0.002931
C     -0.431927   -1.222695   -0.110431
C     -0.752801    0.138914    0.517538
O     -2.003295    0.584813    0.198702
O      0.938023   -1.311155   -0.176641
H      0.557846    1.888071    0.334005
H      0.098728    1.024482   -1.236982
H      1.811593   -0.005740    1.080850
H      2.307057    0.181906   -0.663932
H     -0.873172   -1.202101   -1.136029
H     -0.922737   -2.018446    0.457153
H     -0.526440    0.082544    1.590526
H     -2.042200    0.981257   -0.685993
