20

C     -1.722497    0.976674   -0.549962
C     -1.431552   -1.192903    0.535141
C      1.499577   -0.786957    0.467063
C     -0.791813    0.142426    0.276383
C      0.547038    0.060727   -0.368860
N      1.116730    1.411257   -0.365738
O      2.779132   -0.792434   -0.081832
H     -1.192967    1.567561   -1.333763
H     -2.452180    0.332384   -1.110942
H     -2.302950    1.715635    0.042561
H     -2.373530   -0.981692    1.117124
H     -0.828035   -1.882515    1.123454
H     -1.745614   -1.709381   -0.391745
H      1.131622   -1.838230    0.559183
H      1.567347   -0.354696    1.470840
H     -0.662314    0.635155    1.268207
H      0.515135   -0.366638   -1.390327
H      0.828402    1.949644   -1.196613
H      2.162058    1.264870   -0.463784
H      3.356412   -0.150888    0.393610
