14

C      1.391479   -0.374851   -0.566368
C      0.702921    0.675289    0.266115
C     -1.495467   -0.279339   -0.255127
C     -0.584520    0.140767    0.877134
Br    -1.831164    1.293260   -1.341251
Br    -0.212677   -1.357525    2.042809
H      0.878417   -0.506665   -1.539153
H      2.417578    0.007095   -0.776878
H      1.428040   -1.348033   -0.052572
H      1.356823    1.060266    1.063258
H      0.403232    1.504709   -0.413292
H     -0.962759   -1.046287   -0.845882
H     -2.430122   -0.733561    0.096716
H     -1.061782    0.964875    1.444492
