12

C     -1.304520   -0.155347   -0.345722
C      0.993471   -0.648620    0.453610
C     -0.010629    0.441953    0.169843
Br     1.388570   -1.658857   -1.139828
O      0.462337    1.391190   -0.725635
H     -2.139921    0.524001   -0.070087
H     -1.219359   -0.254784   -1.450914
H     -1.482763   -1.135985    0.134147
H      0.578492   -1.267622    1.267707
H      1.933277   -0.150486    0.775737
H     -0.251537    0.914785    1.143691
H      1.052585    1.999773   -0.212550
