24

C      0.948265    1.867922    0.550493
C     -3.178134   -0.879908    0.321219
C     -2.776208    0.008232   -0.650019
C     -2.253746   -1.351169    1.221401
C     -1.448600    0.403030   -0.693102
C     -0.931394   -0.952093    1.171010
C     -0.529470   -0.070809    0.208120
C      1.399387    0.355332   -1.287002
C      2.704551   -0.819112    0.077518
C      0.867318    0.403142    0.078072
N      2.463075   -0.361750   -1.247236
N      1.786976   -0.380538    0.846697
O      0.877673    0.956200   -2.413220
O      3.801992   -1.632008    0.445412
H      1.028241    1.871489    1.660625
H      1.819766    2.366550    0.077392
H      0.027810    2.350055    0.207810
H     -4.229017   -1.181106    0.341236
H     -3.478985    0.404903   -1.382250
H     -2.589010   -2.047759    1.976545
H     -1.205069    1.117978   -1.492598
H     -0.201720   -1.326956    1.885165
H      1.060704    0.600475   -3.331756
H      4.035595   -1.702100    1.428468
