74

C     -8.970977    0.876291    1.120162
C    -11.311797    0.068152    0.483004
C      9.961649    2.209060   -0.607107
C     11.010083   -0.051302   -0.073752
C     -5.144117    2.469329    2.356356
C      5.980412   -2.151271    1.450453
C     -3.568831   -1.492655   -0.203539
C      3.021205    0.648530   -1.404876
C     -4.970306   -1.524217   -0.280496
C      4.302469    0.913588   -1.818854
C     -9.322033   -1.127723   -0.204803
C      8.948224    0.101455   -1.347355
C     -7.887944   -1.458416   -0.354183
C      7.802768    0.807797   -2.025084
C     -3.695798    0.478572    1.094903
C      3.864985   -0.842826    0.182963
C      0.009044   -2.332171    0.081182
C     -0.450085    1.024067   -0.739693
C     -9.834831   -0.103039    0.440655
C      9.918374    0.727767   -0.710400
C     -2.918507   -0.510375    0.471315
C      2.759073   -0.246342   -0.381577
C     -0.777044   -1.224134   -0.537936
C      0.332819   -0.223049   -0.936686
C     -5.717689   -0.546992    0.335582
C      5.401696    0.289560   -1.223371
C     -5.066415    0.455386    1.024811
C      5.139820   -0.612133   -0.191884
C     -1.454005   -0.454397    0.543471
C      1.374411   -0.536695    0.065314
O     -5.822520    1.455305    1.656739
O      6.255193   -1.227849    0.393412
O     -7.095236   -0.524881    0.293927
O      6.613317    0.544486   -1.620565
O     -1.048466    0.864574    0.471762
O      1.309783   -1.939638    0.180617
H     -8.322860    1.399928    0.380887
H     -8.409034    0.396470    1.943526
H     -9.635432    1.692639    1.535207
H    -11.873942   -0.864985    0.520510
H    -11.635486    0.638301   -0.433532
H    -11.606024    0.662986    1.391081
H     10.851663    2.551107   -0.043177
H      9.998655    2.691409   -1.626664
H      9.078760    2.569507   -0.043194
H     11.788212    0.599377    0.354119
H     10.628089   -0.738957    0.722118
H     11.439739   -0.738410   -0.854541
H     -4.512427    2.027246    3.168881
H     -4.472515    3.060078    1.720528
H     -5.885227    3.135223    2.855678
H      5.498711   -1.654311    2.323160
H      5.258014   -2.875947    1.043214
H      6.916230   -2.612002    1.825615
H     -3.009174   -2.287652   -0.695495
H      2.223310    1.160946   -1.903567
H     -5.477120   -2.312589   -0.822129
H      4.496396    1.621710   -2.627406
H    -10.040802   -1.830081   -0.697338
H      8.939282   -0.978170   -1.407590
H     -7.674590   -1.386270   -1.454932
H     -7.727479   -2.502244   -0.007856
H      8.105638    1.907611   -2.000006
H      7.924071    0.569941   -3.144897
H     -3.164094    1.254142    1.629885
H      3.698904   -1.559572    0.999371
H     -0.101282   -3.229168   -0.598023
H     -0.396668   -2.589350    1.099925
H     -1.269541    1.013541   -1.516475
H      0.112571    1.957311   -0.868434
H     -1.376745   -1.484314   -1.411491
H      0.663673   -0.404183   -1.968483
H     -1.133022   -0.806739    1.569821
H      1.152818   -0.115277    1.057238
