18

C     -1.836215   -0.045694   -0.026086
C     -0.747274   -1.075403   -0.183433
C     -1.069220    1.220945    0.189418
C      1.560581   -0.200237   -0.525509
C      0.444466   -0.463165    0.477682
N      0.014633    0.785309    1.062287
O      2.633860    0.395544    0.100987
H     -2.424031   -0.277361    0.882830
H     -2.503244    0.001877   -0.902200
H     -1.076042   -2.014351    0.324269
H     -0.577797   -1.357973   -1.244930
H     -1.666218    1.958352    0.751355
H     -0.713056    1.624638   -0.767196
H      1.204377    0.488243   -1.310995
H      1.823266   -1.165660   -1.000304
H      0.820446   -1.131451    1.275755
H      0.763779    1.504201    1.023645
H      3.347690   -0.247815    0.351122
