22

C     -2.154202   -0.085618    1.090713
C     -1.967675    0.711138   -0.162161
C      2.812738   -0.383132    0.717336
C      2.422523    0.801695    0.143132
C      1.953505   -1.475729    0.705346
C      1.183902    0.948174   -0.456609
C      0.731646   -1.341992    0.117363
C      0.328947   -0.147080   -0.465800
C     -0.988310    0.015673   -1.105972
O     -0.944493    0.659313   -2.323696
H     -2.628524    0.546302    1.853526
H     -2.751945   -0.995235    0.889542
H     -1.148363   -0.386678    1.465904
H     -2.935324    0.831086   -0.662873
H     -1.568340    1.716071    0.049198
H      3.778214   -0.488346    1.181786
H      3.084214    1.662928    0.145682
H      2.213513   -2.424952    1.142002
H      0.869159    1.891592   -0.915627
H      0.015330   -2.160644    0.076170
H     -1.426931   -1.000766   -1.290102
H     -0.879583    1.646567   -2.194861
