48

C     -0.814431    2.246326    1.250354
C     -2.364980   -1.670839   -1.861576
C     -3.951050    0.064116   -1.136422
C      4.052578    1.253992    1.749887
C      5.200435    0.543979    1.456279
C      2.991848    1.199553    0.903685
C      5.253021   -0.208081    0.309855
C     -2.143755    0.567900    2.314140
C     -3.190550   -0.222483    1.566287
C      0.773894    0.697181   -1.450324
C     -1.151560   -1.397716    1.020104
C      2.848282   -0.657194   -2.155330
C     -1.011627    0.959449    1.387999
C      2.153472    0.199733   -1.290370
C     -2.542748   -1.139306    0.536846
C      3.017173    0.445497   -0.263982
C     -0.259508   -0.134085    0.751151
C      4.179455   -0.261446   -0.545081
C     -0.286072   -0.026593   -0.742000
C     -2.617784   -0.541257   -0.851906
N      4.060662   -0.931999   -1.706627
N     -1.602530    0.440308   -1.054886
H     -1.426554    2.973193    1.767971
H     -0.044040    2.646011    0.625689
H     -1.806385   -2.480300   -1.361442
H     -3.319802   -2.028865   -2.301269
H     -1.714661   -1.274843   -2.666393
H     -3.908694    1.158424   -0.963364
H     -4.124549   -0.046007   -2.247591
H     -4.777833   -0.396835   -0.559984
H      3.977417    1.856803    2.642716
H      6.068296    0.561010    2.107347
H      2.077233    1.762731    1.133214
H      6.171330   -0.757542    0.104528
H     -2.646875    1.472123    2.695173
H     -1.735092    0.046052    3.182692
H     -3.924835    0.459204    1.081688
H     -3.738093   -0.838731    2.305466
H      0.551751    0.570193   -2.572325
H      0.748037    1.805494   -1.348714
H     -1.146072   -1.537186    2.105650
H     -0.707258   -2.254844    0.513866
H      2.435926   -1.039883   -3.073026
H     -3.063948   -2.139697    0.555273
H      0.700235   -0.367352    1.205136
H     -0.303103   -1.118476   -1.144112
H      4.772257   -1.548984   -2.173487
H     -1.708911    1.091273   -1.802787
