35

C      5.083465    0.212756   -0.414949
C      4.426982    1.389136   -0.108857
C      4.412399   -0.981141   -0.230587
C      3.141265    1.359195    0.365445
C      3.114556   -1.001342    0.248726
C     -4.556274   -0.374520   -0.990235
C      2.480762    0.175759    0.546458
C     -3.590920   -0.798545    0.092645
C     -3.681696   -0.047689   -2.144954
C      1.087273    0.183701    1.062655
C      0.153628   -0.122102   -0.113200
C     -1.249711   -0.156264    0.478172
C     -2.248751   -0.658619   -0.537818
O     -3.758002   -0.065658    1.252644
O     -4.052023   -0.022407   -3.366393
O      0.936294   -0.777411    2.047748
O      0.284167    0.820153   -1.108357
O     -1.608213    1.048296    1.034111
O     -2.426577    0.212058   -1.613983
H      6.098188    0.180985   -0.792243
H      4.952438    2.317936   -0.253542
H      4.904813   -1.921509   -0.463280
H      2.625784    2.291593    0.606245
H      2.570414   -1.934086    0.400111
H     -5.295612   -1.143263   -1.240049
H     -5.104894    0.559754   -0.707210
H     -3.734546   -1.882449    0.338733
H      0.805831    1.171942    1.450550
H      0.394125   -1.135019   -0.455620
H     -1.215128   -0.909714    1.294105
H     -1.876034   -1.621536   -0.941148
H     -4.049909    0.854956    1.063594
H      1.791434   -0.770557    2.578006
H      0.354903    1.713503   -0.725714
H     -1.170429    1.832110    0.658131
