42

C      5.174478    0.172142    0.858440
C     -4.599845    0.738922    0.240764
C      2.776914    0.728483    0.705229
C      6.262620   -0.608628    0.539614
C     -5.263468   -0.193470   -0.517696
C      1.539310    0.575007    0.302244
C      3.759431   -1.186024   -0.471825
C     -2.851444   -0.790340    0.748620
C     -2.758712    1.510307    1.665224
C      3.900659   -0.106777    0.354699
C     -3.407559    0.459154    0.872404
C      6.114351   -1.703144   -0.299785
C     -4.712261   -1.452831   -0.648216
C      4.869598   -1.981569   -0.796350
C     -3.521144   -1.739378   -0.019805
C     -1.804496    2.323199    0.803377
C      0.512594    1.503184    0.743827
C     -2.479147    2.988532   -0.326508
O      7.167366   -2.517402   -0.651464
O     -5.410995   -2.363996   -1.420424
O      4.688213   -3.064970   -1.635340
O     -2.965888   -3.011418   -0.152548
O      0.787336    2.462725    1.513586
O     -2.172387    2.721165   -1.514815
O     -3.473150    3.930274   -0.115240
O     -0.815204    1.398408    0.355512
H      5.255956    1.041631    1.516750
H     -5.061082    1.734611    0.328995
H      2.947283    1.587366    1.376543
H      7.238462   -0.384924    0.932887
H     -6.187347    0.057036   -0.994554
H      1.303262   -0.240331   -0.352474
H      2.784637   -1.434162   -0.882816
H     -1.918759   -1.072579    1.219052
H     -3.477570    2.164545    2.200278
H     -2.123578    1.006744    2.429953
H     -1.364960    3.095513    1.474092
H      8.080903   -2.291826   -0.271412
H     -5.147701   -3.308733   -1.611090
H      3.790655   -3.306525   -2.023387
H     -3.390866   -3.749830   -0.691095
H     -4.046466    4.309915   -0.860965
