26

C     -1.083748    0.336422    1.440081
C     -3.044444    0.518356   -0.173405
C      1.330634   -1.051117    0.206017
C      0.140418   -1.715537   -0.351598
C      0.694924    1.046253   -0.833572
C      1.597178    0.311984   -0.233673
C     -0.937466   -0.837481   -0.870447
C     -0.648867    0.554769   -1.108197
C      2.909393    0.878662    0.000578
C     -1.574626    0.193233    0.028219
O      3.206923    2.061499   -0.357961
O      3.870607    0.114064    0.632767
H     -0.957899   -0.634872    1.955740
H     -0.104924    0.884475    1.491661
H     -1.805647    0.918122    2.038107
H     -3.623754    0.129529    0.694095
H     -3.211622    1.620087   -0.227810
H     -3.418029    0.022748   -1.085858
H      1.325244   -1.035798    1.336584
H      2.258442   -1.655359   -0.029906
H      0.444183   -2.421372   -1.152960
H     -0.305380   -2.370429    0.453424
H      0.956111    2.057225   -1.137351
H     -1.679688   -1.363824   -1.525905
H     -1.150687    1.016865   -2.010779
H      4.812724    0.421497    0.822148
