47

C     -2.489927   -0.022328   -2.145429
C     -0.384911    5.246417    0.067630
C     -3.065005   -0.053800   -0.770451
C      4.724911   -0.570658   -0.958695
C      4.445012    0.775844   -0.892841
C     -2.352236   -0.899633    2.559269
C      3.723875   -1.506252   -0.790525
C      3.138233    1.216943   -0.653842
C      0.839290   -3.183085   -0.285433
C     -2.701114   -0.117948    1.574995
C     -1.177554   -1.779010    2.408599
C     -0.145811   -3.299498    0.851176
C     -1.311348    1.216925    0.196339
C      2.445248   -1.078602   -0.556709
C      1.300161   -1.781892   -0.359022
C      2.149195    0.294936   -0.487679
C     -0.039193    1.514983   -0.054047
C      0.330763   -0.817574   -0.174314
C     -1.076328   -1.236980    0.059643
C      0.379290    2.893239   -0.120251
C     -1.947337   -0.090704    0.307419
N     -1.007966   -2.225952    1.084984
N      0.819598    0.408810   -0.247035
O      1.443417    3.443908   -0.328934
O     -0.655904    3.863355    0.103581
H     -2.941412    0.783852   -2.791228
H     -2.755265   -1.001312   -2.635963
H     -1.405536    0.091742   -2.200149
H     -0.602406    5.628413    1.104977
H     -1.052799    5.790602   -0.627554
H      0.676675    5.437888   -0.127757
H     -3.583998    0.915301   -0.589493
H     -3.790271   -0.852463   -0.590390
H      5.714863   -0.942788   -1.140111
H      5.271300    1.459407   -1.032675
H     -2.925713   -0.918891    3.519709
H      3.910564   -2.571433   -0.836420
H      3.052143    2.257995   -0.625543
H      1.679201   -3.884997   -0.042683
H      0.340935   -3.514061   -1.220586
H     -3.563172    0.537272    1.671858
H     -1.340615   -2.667799    3.066892
H     -0.305230   -1.247480    2.842705
H     -0.777410   -4.206466    0.605743
H      0.388858   -3.609398    1.782587
H     -1.981835    2.069286    0.340525
H     -1.393238   -1.766115   -0.862872
