35

C      4.841901    0.472175   -0.940985
C      4.463319   -0.841200   -0.737060
C      4.010733    1.467420   -0.475133
C      3.284841   -1.155222   -0.084612
C      2.821841    1.151538    0.183082
C     -4.145021    0.963363   -0.727534
C      2.441446   -0.157887    0.388035
C     -2.703270    0.926376   -0.286554
C     -4.722487   -0.207240   -0.002109
C      1.176682   -0.479464    1.088341
C     -0.019067   -0.375437    0.165869
C     -1.281175   -0.774385    0.863197
C     -2.462484   -0.543042   -0.053926
O     -2.640795    1.560106    0.967509
O     -5.938364   -0.468997    0.060677
O      0.984453    0.283475    2.234689
O      0.139852   -1.118800   -0.977890
O     -1.200591   -2.119690    1.188559
O     -3.674888   -0.933586    0.576634
H      5.762747    0.718803   -1.450787
H      5.116527   -1.636615   -1.103228
H      4.289234    2.493989   -0.624874
H      2.993104   -2.166846    0.072538
H      2.187138    1.944317    0.538977
H     -4.651520    1.901227   -0.500222
H     -4.267107    0.756444   -1.805014
H     -2.008930    1.378943   -1.005384
H      1.221382   -1.547907    1.433791
H     -0.122966    0.698375   -0.125671
H     -1.441942   -0.186968    1.787105
H     -2.345409   -1.106366   -1.004823
H     -3.103195    0.985775    1.627609
H      0.993993    1.258368    2.046726
H      0.498682   -0.556227   -1.725806
H     -0.498665   -2.584817    0.646759
