36

C     -3.356633    1.150976    1.073692
C     -3.183651    0.781971   -1.345681
C      1.051918    2.319974   -0.851196
C      4.621161   -1.179017   -0.110886
C      4.555577    0.103858   -0.612815
C      3.441822   -1.748994    0.336053
C      3.384929    0.817712   -0.681957
C     -1.388783   -1.448596    1.111201
C      2.250206   -1.032477    0.269728
C     -0.068967   -0.909635    0.650194
C      2.207592    0.249781   -0.236211
C     -2.423230   -0.986743    0.141119
C      1.087299   -1.619497    0.720427
C     -0.065004    0.368707    0.137169
C     -2.507938    0.496714    0.002281
N      1.065422    0.953010   -0.306399
O     -2.088252   -1.538394   -1.115489
O      1.060444   -2.785263    1.192558
O     -1.235049    1.129307    0.049104
H     -3.830485    0.360143    1.695017
H     -4.143258    1.820908    0.627181
H     -2.773225    1.790385    1.755758
H     -4.204336    0.346247   -1.287662
H     -3.163494    1.846050   -1.599283
H     -2.629605    0.142492   -2.091803
H      0.077903    2.770242   -0.598416
H      1.152334    2.311051   -1.940547
H      1.826843    2.939451   -0.353191
H      5.528724   -1.745937   -0.051874
H      5.475928    0.566910   -0.968940
H      3.389510   -2.742408    0.743832
H      3.381068    1.813740   -1.080378
H     -1.579572   -0.935759    2.099015
H     -1.405616   -2.532618    1.179857
H     -3.437950   -1.348893    0.454054
H     -2.073631   -2.525400   -1.086499
