52

C     -2.990427    3.256493   -0.374656
C     -3.998409   -3.460549   -1.116611
C      5.671519    0.920967   -0.193593
C      3.363236   -2.970318   -1.635506
C      0.042810   -2.853679    1.078714
C      1.027319    2.767208    0.285156
C     -0.995652   -0.812667   -0.865214
C      0.115952    2.651243    1.521177
C     -2.177433   -1.506473   -0.920544
C      2.872283    1.211325   -0.003711
C     -2.886841    0.759593    1.112688
C      1.534662    1.358637    0.085289
C     -0.725183    0.206648    0.026073
C     -1.597534    1.063563    0.723602
C     -1.331606    2.450689    1.162721
C     -3.660865   -0.309990    0.685294
C     -3.335383   -1.353314   -0.161479
C      3.418208   -0.063841   -0.144496
C      0.733530    0.203152    0.030305
C      2.591880   -1.181213   -0.190902
C      1.211528   -1.054139   -0.099300
N     -1.602974    3.377076    0.050570
O     -4.856912   -0.342899    1.138510
O     -4.280711   -2.379855   -0.271162
O      4.795751   -0.158467   -0.233779
O      3.154972   -2.444798   -0.331129
O      0.367924   -2.147366   -0.122622
H     -3.207755    2.288801   -0.842121
H     -3.698016    3.453240    0.445499
H     -3.147383    4.048561   -1.138496
H     -3.030561   -3.909901   -0.807150
H     -4.765752   -4.261421   -1.041747
H     -3.932540   -3.175712   -2.177960
H      6.701845    0.510655   -0.003760
H      5.694649    1.402419   -1.195566
H      5.402927    1.605616    0.617011
H      3.670354   -4.031688   -1.511520
H      2.470648   -2.856833   -2.271795
H      4.207730   -2.470324   -2.151405
H     -0.434713   -3.789907    0.782320
H      0.987069   -2.995951    1.662144
H     -0.663882   -2.222755    1.645456
H      0.484574    3.106488   -0.594556
H      1.878001    3.410258    0.589079
H     -0.176604   -0.975719   -1.536003
H      0.426832    1.806908    2.170207
H      0.206667    3.575692    2.129344
H     -2.174689   -2.277648   -1.675222
H      3.494320    2.094223    0.036688
H     -3.325584    1.438365    1.825952
H     -2.009770    2.700124    1.997971
H     -1.520009    4.339487    0.489808
