36

C     -3.591964    1.053685    1.026027
C     -2.392776    1.152759   -1.099971
C      1.206367    2.138894    1.180410
C      4.598032   -1.047628   -0.636511
C      4.649658    0.217317   -0.102170
C      3.386796   -1.673707   -0.742463
C      3.494271    0.847757    0.322047
C     -1.427461   -1.798669   -0.152041
C      2.209073   -1.072545   -0.327789
C     -0.153513   -1.084423   -0.016948
C      2.274077    0.209603    0.212120
C     -2.644685   -0.978573    0.075321
C      0.995450   -1.720830   -0.442886
C     -0.065053    0.182828    0.513436
C     -2.421589    0.478135    0.242664
N      1.140504    0.808508    0.619946
O     -3.369510   -1.450891    1.187925
O      0.943534   -2.890558   -0.936432
O     -1.224338    0.795134    0.930421
H     -4.490728    0.984741    0.403518
H     -3.392838    2.048080    1.427800
H     -3.742862    0.375580    1.902242
H     -1.563699    0.761263   -1.731379
H     -2.246050    2.249417   -0.919116
H     -3.359955    1.026348   -1.639633
H      1.748302    2.114901    2.144856
H      1.716298    2.823395    0.476158
H      0.193811    2.542235    1.365042
H      5.522814   -1.500932   -0.954122
H      5.604896    0.746941   -0.003263
H      3.363299   -2.678523   -1.169263
H      3.515293    1.840115    0.743897
H     -1.379258   -2.678394    0.554974
H     -1.423435   -2.280065   -1.172615
H     -3.328028   -1.129189   -0.810090
H     -4.344733   -1.412710    1.003479
