52

C     -2.418551    5.892260    0.158145
C     -1.575163   -5.131182   -0.457380
C     -5.559312   -1.204905   -0.090276
C      5.292595   -1.049551    0.859987
C      4.145599   -2.032526    0.612035
C     -0.414774    3.964409   -0.022053
C      0.521834    2.959657   -0.111610
C      4.713877    0.331700    0.540129
C      1.870361   -1.646839   -0.404002
C     -2.102073    2.248106   -0.042621
C     -0.885136   -2.401752   -0.337323
C     -2.852351   -0.446376   -0.154994
C      2.575194    1.099276   -0.292405
C      2.978353   -1.119111    0.503044
C     -1.738706    3.601333    0.012558
C      0.197935    1.616702   -0.167778
C      0.769552   -0.689043   -0.311292
C     -1.144880    1.266396   -0.131820
C     -0.551263   -1.063363   -0.278045
C     -1.530963   -0.067376   -0.186190
C      1.171739    0.648036   -0.257564
C     -2.210521   -2.763670   -0.305025
C     -3.176962   -1.789647   -0.214706
N      3.530001    0.034348   -0.192420
O     -2.769576    4.524750    0.101733
O     -2.533709   -4.105803   -0.364767
O     -4.513591   -2.156570   -0.182205
H     -1.746555    6.069272   -0.728953
H     -1.821123    6.102367    1.073477
H     -3.314145    6.535678    0.136116
H     -1.211697   -5.141476   -1.511783
H     -2.045431   -6.120201   -0.282685
H     -0.735170   -4.978507    0.264441
H     -5.411242   -0.430689   -0.887179
H     -5.509502   -0.763485    0.920681
H     -6.546587   -1.659859   -0.244622
H      5.561905   -1.039657    1.933057
H      6.132548   -1.307358    0.192646
H      4.288860   -2.578238   -0.336933
H      4.001994   -2.703007    1.479505
H     -0.165455    5.013239    0.021988
H      1.562097    3.262245   -0.139168
H      5.438910    0.809565   -0.153904
H      4.561876    0.924983    1.455788
H      1.699401   -2.692058   -0.295586
H      2.283828   -1.523309   -1.454917
H     -3.129409    1.971269   -0.015467
H     -0.101200   -3.162721   -0.412226
H     -3.663610    0.246499   -0.085823
H      2.731236    1.635745   -1.242983
H      2.786110    1.808543    0.562642
H      2.562853   -0.798099    1.468734
