15

C     -1.839020    0.099031    0.080883
C      0.469393   -0.827652    0.432266
C      1.830101   -0.290160    0.056328
C     -0.445686    0.017429   -0.423870
C      0.275350    1.321506   -0.405958
O     -0.163380    2.482113   -0.278263
O      1.617342    0.960287   -0.570375
H     -1.982047    0.862831    0.860173
H     -2.519599    0.355963   -0.782796
H     -2.165006   -0.917800    0.419329
H      0.348666   -1.890642    0.195279
H      0.270146   -0.658490    1.524607
H      2.306303   -1.018694   -0.634148
H      2.431593   -0.122976    0.981763
H     -0.434156   -0.372745   -1.455219
