49

C     -4.789026   -0.122817    1.500793
C     -1.000749   -3.674854   -1.857942
C     -3.312373   -0.036033    1.841835
C      5.512807   -0.024756    0.423356
C      5.451249   -1.395636    0.303909
C      4.393344    0.775642    0.341850
C      4.228487   -1.981412    0.096247
C      1.593218    2.205884    0.092835
C      0.467793    2.417561    1.053399
C     -2.932895    0.602201   -0.548470
C     -0.757057    0.513429   -1.641629
C     -1.474274    2.514505   -0.402287
C     -1.951990    1.427157   -1.361750
C     -2.496910    0.345824    0.679883
C      3.163214    0.189324    0.133181
C      1.904895    0.739079    0.013113
C      3.097598   -1.198905    0.011790
C      1.060621   -0.335243   -0.184769
C     -1.002486    0.494767    0.813055
C     -0.979533   -1.602161   -0.534171
C     -0.412793   -0.246334   -0.371558
N      1.787787   -1.464181   -0.181261
N     -0.790909    1.917334    0.684486
O     -1.830590   -2.136457    0.200138
O     -0.526391   -2.368837   -1.610199
H     -5.079208   -1.119928    1.151718
H     -5.419774    0.146208    2.374832
H     -5.006189    0.619279    0.703717
H     -0.508537   -4.433585   -1.218033
H     -2.093525   -3.761259   -1.701289
H     -0.735213   -3.935951   -2.906982
H     -3.017718   -0.960832    2.345972
H     -3.261234    0.761950    2.641811
H      6.486684    0.406984    0.585928
H      6.375928   -1.986749    0.376921
H      4.425588    1.849027    0.433297
H      4.172659   -3.052269    0.001927
H      1.464761    2.669151   -0.886729
H      2.494412    2.714590    0.548507
H      0.361560    3.534910    1.182455
H      0.761583    1.969403    2.025067
H     -3.868161    0.279001   -0.955292
H     -1.098484   -0.166385   -2.458553
H      0.107876    1.052770   -2.019213
H     -2.424071    2.972970    0.003582
H     -0.931669    3.313513   -0.928241
H     -2.396197    1.828933   -2.266499
H     -0.626188    0.165170    1.777399
H      1.412081   -2.421982   -0.308135
