49

C      4.033210    1.642117    0.817880
C      4.943567   -2.342729   -0.822889
C      0.378284    2.833431    0.185811
C      3.840867    0.660900   -0.296468
C      4.530602   -1.586423    0.423823
C     -3.928637   -2.553910   -1.678603
C     -2.673976   -2.037250   -1.446221
C     -5.105597   -1.940127   -1.218688
C     -0.268139   -0.868955   -0.448611
C     -2.665598    1.610079    0.801371
C     -5.229579    1.099981    0.663206
C      0.577125    0.664150    1.157962
C     -3.884380    0.893654    0.444277
C      1.006930   -0.108790   -0.101820
C     -2.645770   -0.844231   -0.711695
C     -1.384238   -0.186744   -0.392788
C     -5.065601   -0.759459   -0.492844
C     -1.454456    1.262241   -0.008112
C     -3.801316   -0.263730   -0.273926
C      2.091576   -1.037579    0.194909
N     -5.945637    0.083904    0.086561
N     -0.301865    1.703797    0.730894
N      3.445473   -0.652878    0.104908
O      1.876605   -2.244085    0.551932
H      5.096191    1.966320    0.883570
H      3.817966    1.198057    1.818852
H      3.395587    2.526224    0.646746
H      5.811332   -1.878637   -1.332632
H      5.223822   -3.398605   -0.560471
H      4.096054   -2.387465   -1.521798
H     -0.359354    3.406823   -0.439605
H      0.679564    3.551444    0.993904
H      1.248333    2.515837   -0.421692
H      3.097004    1.108479   -1.021384
H      4.839339    0.572791   -0.831213
H      5.432935   -1.044529    0.783934
H      4.248629   -2.315779    1.183021
H     -4.016427   -3.472335   -2.239360
H     -1.788707   -2.519047   -1.807182
H     -6.081819   -2.370404   -1.416919
H     -0.261792   -1.903806   -0.719495
H     -2.484935    1.467893    1.903310
H     -2.860398    2.700408    0.679731
H     -5.713722    1.901197    1.189553
H      1.425843    1.087002    1.683724
H      0.041153   -0.062005    1.812174
H      1.176866    0.551482   -0.946705
H     -1.469382    1.822794   -0.969173
H     -6.963535   -0.051506    0.072770
