24

C     -2.199493   -0.406016   -0.328595
C     -1.894057    0.977528    0.249579
C      2.452260   -0.278539    0.161369
C     -1.064661   -1.273020    0.204249
C      1.341931   -1.215390    0.545345
C     -0.637183    1.466681   -0.362624
C      1.701783    0.964279   -0.243547
C      0.203295   -0.809513   -0.398903
N      0.371129    0.546825   -0.636482
H     -3.170492   -0.749562    0.065667
H     -2.187712   -0.355864   -1.442142
H     -1.718151    0.835502    1.343095
H     -2.713017    1.670972    0.031853
H      3.064361   -0.032778    1.045183
H      3.047197   -0.662834   -0.680949
H     -1.016522   -1.075905    1.307698
H     -1.252163   -2.318844   -0.043035
H      1.616700   -2.265219    0.379700
H      0.997338   -1.019786    1.578455
H     -0.225373    2.274845    0.312272
H     -0.913870    2.029140   -1.301177
H      1.592709    1.661622    0.621372
H      2.222573    1.449717   -1.074598
H      0.381417   -1.413842   -1.333786
