16

C      0.824873   -1.265002   -0.238710
C      0.541219   -0.989041    1.033666
C      0.824928    1.023785   -0.017240
C     -1.099034    0.018060   -0.915562
C      0.406116   -0.070052   -1.015655
C     -0.000413    0.397413    1.127615
C     -1.328106    0.440599    0.482955
O     -2.358061    0.754286    1.001961
H      1.266975   -2.156691   -0.665505
H      0.684583   -1.675836    1.877924
H      1.885946    0.964079    0.233394
H      0.450539    2.003546   -0.298494
H     -1.553035    0.666477   -1.663082
H     -1.482841   -1.036992   -1.017225
H      0.825366    0.039133   -1.985828
H      0.110946    0.886235    2.059786
