11

C      2.328468    0.160082   -0.665749
C     -0.711708   -0.058314    1.053011
C      1.132566    0.208472   -0.545854
C     -0.342291    0.265335   -0.372706
O     -0.856669   -0.722615   -1.210124
H      3.391344    0.134593   -0.765913
H     -1.800006    0.181487    1.234941
H     -0.115703    0.535121    1.772132
H     -0.497637   -1.127550    1.266856
H     -0.687183    1.262069   -0.682930
H     -1.841182   -0.838680   -1.083663
