26

C     -3.476478    0.108944   -0.499404
C     -2.240386    0.271274    0.325163
C      2.047875    0.945124    0.982111
C      2.765912    0.381333   -0.228436
C     -1.149621   -0.648164   -0.185611
C      0.568484    0.979568    0.626534
C      2.030446   -0.872348   -0.658349
C      0.076193   -0.447352    0.678589
N      1.123485   -1.358718    0.344010
H     -3.802523   -0.944353   -0.459710
H     -4.261260    0.773710   -0.077696
H     -3.267686    0.430181   -1.528977
H     -2.464136   -0.044433    1.363122
H     -1.920938    1.326909    0.359571
H      2.406218    1.965112    1.233250
H      2.156348    0.282270    1.861011
H      2.671753    1.144655   -1.041834
H      3.836289    0.175337   -0.014516
H     -0.925074   -0.389085   -1.241112
H     -1.511383   -1.675140   -0.093390
H      0.023441    1.598288    1.367367
H      0.413528    1.389665   -0.388002
H      1.545592   -0.756889   -1.648247
H      2.803207   -1.676611   -0.804463
H     -0.256387   -0.657444    1.733447
H      0.807098   -2.301834    0.083809
