53

C      6.230718   -0.236687   -1.320389
C     -4.428008   -3.276859    0.982396
C     -2.359380    2.166348   -1.682063
C     -3.200742    3.129138    0.472913
C      6.348272   -0.387487    0.149366
C      5.451951    0.427963    0.987257
C      4.001799    0.189544    0.872312
C      3.430657    0.415934   -0.477705
C     -4.806547   -0.999782    0.166521
C     -4.434105    0.415327   -0.176799
C     -2.559384   -1.537688    0.939657
C      1.415901   -1.071664   -0.593408
C      1.081669    1.213482   -0.072064
C     -3.992463   -1.893917    0.666088
C      1.944730    0.179580   -0.379280
C     -2.207001   -0.503805   -0.105484
C     -3.037041    0.709679    0.250882
C      0.061589   -1.288996   -0.503886
C     -0.274054    1.007038    0.019883
C     -0.772707   -0.249356   -0.197818
C     -2.453185    1.989187   -0.211730
O     -0.396041   -2.587779   -0.736699
O     -1.120183    2.040012    0.323718
H      5.856292   -1.140258   -1.852530
H      5.791958    0.711402   -1.636598
H      7.309174   -0.169353   -1.709938
H     -3.602801   -4.021117    0.805070
H     -5.266111   -3.605850    0.309198
H     -4.732163   -3.356691    2.040524
H     -2.547460    1.261151   -2.273050
H     -3.062256    2.994118   -1.976473
H     -1.346713    2.545572   -2.005806
H     -2.899565    3.064292    1.556560
H     -4.300714    3.010821    0.378311
H     -2.828915    4.067670    0.037847
H      6.130950   -1.477405    0.410354
H      7.404920   -0.215593    0.482435
H      5.748593    0.317274    2.066357
H      5.702989    1.523514    0.779027
H      3.432638    0.768526    1.658897
H      3.768949   -0.880232    1.140116
H      3.782669   -0.360123   -1.205954
H      3.611020    1.394658   -0.927982
H     -5.843380   -1.298951   -0.018932
H     -5.137895    1.080800    0.386417
H     -4.633652    0.556577   -1.240706
H     -2.587593   -0.979548    1.919639
H     -1.911713   -2.405993    0.978511
H      2.084451   -1.913361   -0.840262
H      1.514681    2.198523    0.094705
H     -2.531824   -0.934615   -1.082114
H     -3.052726    0.758006    1.380582
H      0.219749   -3.343024   -0.960007
