55

C      4.364906   -1.348783    0.307783
C      0.515771    2.207118   -1.813413
C     -4.251588   -0.426207   -1.469466
C     -4.403324    0.343700    0.810172
C     -0.729282   -0.622196    1.508197
C     -2.182229   -2.582282    0.234698
C      2.694829    0.389417   -0.655856
C     -0.900357    2.325036    0.140562
C      1.501353   -0.191084    0.064449
C     -2.150843    1.545843    0.501600
C      4.767707    1.013140    0.549495
C     -3.463157   -1.847465    0.349938
C     -1.123282   -1.914883   -0.579039
C      6.029244    0.708210    1.280788
C      3.965053    0.069412    0.080411
C     -0.041364    1.566275   -0.799508
C      0.221505    0.110542   -0.656092
C     -2.205326    0.243898   -0.319201
C     -3.489934   -0.457949   -0.133198
C     -0.976340   -0.520115    0.023316
O      5.928848    1.263929    2.544760
H      4.411706   -1.523484    1.386014
H      5.330335   -1.534980   -0.198567
H      3.627261   -2.046791   -0.157849
H      1.161658    1.710659   -2.547218
H      0.355544    3.249385   -1.958873
H     -5.307683   -0.621398   -1.238404
H     -4.114542    0.528249   -1.990000
H     -3.840136   -1.275621   -2.054379
H     -5.283995   -0.344536    0.980335
H     -3.951858    0.497967    1.788537
H     -4.814664    1.232039    0.323062
H     -1.703281   -0.889679    2.001961
H     -0.363299    0.338464    1.909370
H      0.030154   -1.382105    1.710172
H     -1.729608   -2.781186    1.250700
H     -2.309331   -3.614830   -0.192746
H      2.782077    0.038788   -1.695712
H      2.609723    1.516153   -0.662766
H     -1.147757    3.294580   -0.333312
H     -0.287706    2.570038    1.033801
H      1.493752    0.235677    1.099656
H      1.662654   -1.269233    0.182817
H     -3.015873    2.190092    0.245059
H     -2.104894    1.338760    1.586325
H      4.520358    2.050435    0.409384
H     -4.245081   -2.469549   -0.182983
H     -3.795397   -1.912158    1.429817
H     -1.418746   -1.782615   -1.635538
H     -0.194316   -2.500076   -0.486735
H      6.898302    1.157424    0.746820
H      6.222677   -0.385483    1.298596
H      0.294599   -0.302669   -1.677919
H     -2.070817    0.603671   -1.384365
H      6.225997    2.208457    2.464608
