16

C      1.250398    0.860136   -0.119287
C      1.316967   -0.114991    0.774619
C      0.033854   -0.905057   -0.946857
C     -1.151942    0.851627    0.025414
C      0.009076    0.634941   -0.909057
C      0.161584   -1.026416    0.586065
C     -1.053271   -0.291356    0.978687
O     -1.800499   -0.577045    1.891149
H      1.938653    1.652576   -0.257212
H      2.080452   -0.235133    1.519983
H     -0.896767   -1.322215   -1.313213
H      0.951362   -1.256585   -1.412982
H     -0.944323    1.774886    0.604051
H     -2.127244    0.879408   -0.493393
H     -0.040683    1.097002   -1.862355
H      0.272384   -2.021779    0.934390
