19

C     -2.147879   -0.324042   -0.930531
C      2.716564    0.053666   -0.062427
C      2.021637   -1.106893    0.174167
C      2.037868    1.238322   -0.159253
C      0.653119   -1.047761    0.308452
C      0.657357    1.288264   -0.022423
C     -1.507696    0.195667    0.357598
C     -0.048633    0.133090    0.214567
O     -1.967445   -0.567075    1.449220
H     -1.367439   -0.464469   -1.719655
H     -2.883028    0.394870   -1.312147
H     -2.700125   -1.279219   -0.729508
H      3.788915    0.057481   -0.174726
H      2.598581   -2.020288    0.243248
H      2.543435    2.178062   -0.344868
H      0.141845   -1.982147    0.493924
H      0.133568    2.240223   -0.102481
H     -1.820934    1.231112    0.563189
H     -2.849709   -0.218862    1.753655
