18

C      2.054205   -0.225815    0.465984
C     -0.618622   -1.366826    0.464999
C      0.827697    0.577459    0.153461
C     -1.426578    0.665765   -0.768317
C     -0.256005   -0.261426   -0.501305
O     -1.807077    1.227926    0.444056
H      2.930359    0.482867    0.503575
H      2.014036   -0.695652    1.465299
H      2.292638   -0.968174   -0.314231
H     -1.537019   -1.002616    1.009631
H     -0.934912   -2.294870   -0.056005
H      0.178182   -1.554316    1.208116
H      0.381517    0.998231    1.078320
H      1.073463    1.413895   -0.527605
H     -1.077008    1.423632   -1.491739
H     -2.256047    0.049345   -1.146012
H      0.113257   -0.688832   -1.453746
H     -1.952085    2.219406    0.327618
