33

C      4.669552    0.853644   -0.150016
C     -3.766428    1.960788    0.286404
C      3.559700   -0.187084    0.023940
C      2.374158    0.329925   -0.757252
C      1.192185   -0.582949   -0.689049
C      0.738251   -0.764425    0.721162
C     -0.453900   -1.677949    0.840144
C     -1.647950   -1.187873    0.093400
C     -2.116303    0.172308    0.578280
C     -3.323476    0.618623   -0.209363
O     -4.385492   -0.280210    0.025277
H      5.572286    0.482836    0.372382
H      4.299383    1.788632    0.308761
H      4.865069    0.938849   -1.234470
H     -3.227703    2.783160   -0.209234
H     -4.857113    2.085608    0.106522
H     -3.613974    2.017385    1.386846
H      3.920883   -1.150990   -0.370493
H      3.342097   -0.285637    1.109956
H      2.092233    1.309285   -0.294867
H      2.722531    0.485550   -1.798835
H      0.357416   -0.157291   -1.270552
H      1.419882   -1.569971   -1.148100
H      1.571769   -1.279001    1.283262
H      0.569812    0.207881    1.202230
H     -0.719039   -1.742395    1.915915
H     -0.181177   -2.668210    0.471383
H     -2.479604   -1.898708    0.277275
H     -1.487445   -1.148604   -1.001606
H     -1.308013    0.933629    0.391852
H     -2.389577    0.115673    1.652797
H     -3.072292    0.631499   -1.285257
H     -4.237720   -1.133977   -0.425476
