15

C     -2.038664    0.152124   -0.605338
C      2.676873   -0.224190   -0.024558
C     -1.068918    0.211316    0.551968
C      0.317881    0.470237    0.050987
O     -1.092791   -0.921439    1.332770
O      0.575792    1.447419   -0.677970
O      1.337813   -0.411443    0.416225
H     -2.768590   -0.680672   -0.455753
H     -2.646132    1.095959   -0.688655
H     -1.498503   -0.010878   -1.580078
H      3.355969   -0.456973    0.796855
H      2.849069    0.821678   -0.382718
H      2.859036   -0.893200   -0.865525
H     -1.300698    1.080714    1.227046
H     -1.558135   -1.680654    0.904743
