27

C     -3.613446    1.029249    0.282329
C      3.045032    1.032423    1.000222
C     -2.205396    0.661733    0.639230
C     -1.606820   -0.174160   -0.446864
C      0.728177    0.604458    0.030406
C      2.549274   -1.065755   -0.104603
C      0.358810   -1.429522   -1.268836
C      2.097309    0.120896    0.274172
C     -0.178414   -0.578022   -0.141454
C      1.661222   -1.982552   -0.812973
O      2.034287   -3.155872   -0.994220
H     -4.290150    0.915123    1.157006
H     -3.691870    2.042640   -0.139348
H     -3.978725    0.311729   -0.480089
H      4.015087    0.521309    1.192485
H      3.258205    1.867143    0.303452
H      2.586688    1.335242    1.943511
H     -2.220570    0.069449    1.576247
H     -1.602919    1.559846    0.800616
H     -1.582517    0.387803   -1.404400
H     -2.184331   -1.097813   -0.631841
H      0.412128    1.250828    0.885128
H      0.742481    1.243371   -0.883167
H      3.583660   -1.325601    0.126745
H     -0.345655   -2.225752   -1.563328
H      0.584187   -0.757069   -2.138534
H     -0.155735   -1.161123    0.798109
