42

C      3.806822   -0.029221    0.902755
C      5.136168   -0.505231   -1.222936
C     -3.975444    0.862779    0.315788
C     -0.991809    1.701961   -0.811791
C      1.545341    0.667473   -0.658215
C     -1.581794    0.083989    2.134972
C      2.797761    0.248355   -1.328709
C     -2.723024   -0.755874    1.660199
C      0.390247   -0.274523   -1.027022
C     -0.495693    0.316750    1.167878
C     -1.775397   -1.929891   -0.886119
C      3.841515   -0.072662   -0.582430
C     -3.201600   -0.404711    0.287842
C     -2.061629   -0.478812   -0.655686
C     -0.831469    0.273712   -0.269141
O     -2.536548   -2.554870   -1.602438
H      3.107041   -0.794509    1.326184
H      4.802862   -0.257542    1.326716
H      3.538297    0.977765    1.282929
H      5.472759   -1.411941   -0.678361
H      5.875017    0.300082   -1.041588
H      4.996990   -0.734559   -2.299676
H     -4.287072    1.241104   -0.665732
H     -3.510855    1.661025    0.967023
H     -4.944194    0.635782    0.856643
H     -2.031813    2.015289   -0.882762
H     -0.552975    1.802220   -1.824412
H     -0.439314    2.419134   -0.160276
H      1.713008    0.668104    0.431145
H      1.325043    1.702562   -1.038860
H     -1.992094    1.061902    2.464644
H     -1.189473   -0.400189    3.073467
H      2.899974    0.192062   -2.403056
H     -2.441861   -1.836987    1.645947
H     -3.592837   -0.677735    2.344784
H      0.172146   -0.201661   -2.106213
H      0.687315   -1.261985   -0.678274
H      0.306398   -0.454207    1.382228
H      0.028442    1.291600    1.397048
H     -0.940165   -2.465757   -0.462131
H     -3.925938   -1.215109   -0.022835
H     -2.420144   -0.097607   -1.659527
