18

C      2.798002   -0.100256    0.063648
C     -2.585416   -0.868361   -0.331763
C      1.775596    0.242199    1.118012
C     -1.471146    0.017071   -0.876610
C     -0.162829   -0.359607   -0.267140
O     -1.787053    1.340290   -0.511287
O      0.295379   -1.493504   -0.470217
O      0.536909    0.531189    0.512872
H      2.879304   -1.205259   -0.024726
H      2.456220    0.303519   -0.912753
H      3.784202    0.282622    0.353502
H     -3.317886   -0.292321    0.257445
H     -2.118232   -1.638453    0.319377
H     -3.109892   -1.415515   -1.131402
H      2.079938    1.128838    1.706666
H      1.655395   -0.630091    1.818750
H     -1.440304   -0.042494   -1.977741
H     -2.268187    1.313571    0.353369
