38

C      4.142712    1.474014   -0.345623
C     -2.930445   -0.348569   -0.878818
C     -1.970794   -1.658725    0.893815
C     -0.607873   -0.251058   -1.947586
C     -2.043040    1.915908    0.252340
C     -2.217227    0.721587    1.168849
C     -0.710778    1.607196   -0.360426
C      1.755913    0.658616   -0.305400
C      3.420586   -0.672380    0.708875
C      1.086755   -1.390472    0.695048
C      3.077738    0.478811    0.021410
C      0.744891   -0.255014    0.017843
C      2.428242   -1.577893    1.030201
C     -1.797833   -0.380699    0.182531
C     -0.591404    0.065206   -0.426965
O      2.753390   -2.744199    1.724134
H      5.145754    1.001947   -0.264049
H      4.009948    1.726412   -1.415728
H      4.019824    2.388460    0.228089
H     -2.738599    0.402420   -1.655436
H     -3.873664   -0.153582   -0.341878
H     -3.047490   -1.352923   -1.332905
H     -1.626005   -1.676176    1.941507
H     -3.110682   -1.751239    1.040841
H     -1.776295   -2.578293    0.309004
H      0.448469   -0.415574   -2.295614
H     -1.208367   -1.138569   -2.153753
H     -0.958778    0.617189   -2.511798
H     -1.998931    2.802997    0.934699
H     -2.875527    1.998699   -0.447276
H     -1.552299    0.730547    2.033267
H     -3.287597    0.543042    1.385811
H      0.033545    2.026350    0.360353
H     -0.680950    2.065041   -1.347946
H      1.555501    1.586602   -0.858134
H      4.466200   -0.844810    0.985804
H      0.404274   -2.170453    0.986248
H      2.110835   -3.450418    1.988662
