38

C     -3.992591    1.278413   -0.469851
C     -1.875129   -1.599225    0.761099
C     -0.931680   -1.819816   -0.366090
C     -2.767467   -0.437028    0.703317
C      0.478145   -1.860596    0.196524
C      3.741796   -0.421677   -0.962173
C      3.774629    0.758151   -0.390470
C      0.306965    1.151528    0.958123
C     -2.658642    0.491304   -0.454181
C      1.341569   -0.727211   -0.339695
C      1.554605    0.318384    0.716772
C      2.680835   -1.334487   -0.610536
C      2.765454    1.158785    0.586979
C     -0.366978    1.533738   -0.301237
O      2.908049   -2.574094   -0.544975
O      2.456711    2.507542    0.296170
O      0.386728    1.930115   -1.222328
O     -1.691310    1.455082   -0.428363
H     -4.842136    0.599992   -0.335420
H     -4.056825    1.861324   -1.426869
H     -3.989037    2.024385    0.345890
H     -2.507767   -2.530155    0.908328
H     -1.310056   -1.565327    1.745148
H     -1.155999   -2.829632   -0.825738
H     -1.002003   -1.130229   -1.213772
H     -2.686860    0.138656    1.673391
H     -3.840929   -0.790566    0.723718
H      0.472050   -1.757759    1.321571
H      0.928170   -2.856769    0.011066
H      4.502767   -0.733102   -1.701185
H      4.552632    1.454762   -0.635748
H      0.691402    2.070300    1.499176
H     -0.346368    0.663606    1.692477
H     -2.733210   -0.107367   -1.392425
H      0.923852   -0.342940   -1.280011
H      1.684913   -0.276963    1.674675
H      3.326153    1.251779    1.573526
H      3.277563    3.047098    0.370091
