14

C      1.877486   -0.126158    0.493952
C     -1.893357    0.029326   -0.010267
C      0.546352   -0.246969   -0.201379
C     -0.591154    0.166805    0.727431
Cl    -0.317888    1.816949    1.270005
H      2.679273   -0.010000   -0.260829
H      2.085569   -1.035579    1.089854
H      1.871323    0.796184    1.094601
H     -1.682151    0.106485   -1.088593
H     -2.506032    0.931864    0.247579
H     -2.436732   -0.910624    0.226560
H      0.552605    0.388993   -1.103384
H      0.435248   -1.334634   -0.473824
H     -0.620542   -0.572643    1.568905
