54

C      4.454431   -0.420562   -2.514325
C      5.651098    0.656049   -0.691382
C     -4.240425    1.534220   -0.751082
C     -4.566789    0.538899    1.465871
C      4.611745    0.763660    2.620255
C     -3.725453   -2.117210    0.143814
C     -4.222337   -0.885540   -0.537507
C     -2.711727   -1.862802    1.209685
C     -0.537345   -0.709701    1.615795
C     -1.546718    0.944208   -0.785537
C      4.341935    0.583574   -1.378172
C      0.690755   -0.378925    0.833054
C     -2.333146    0.458153    0.409737
C      3.191147    0.255599   -0.547775
C      0.671952   -0.141851   -0.468610
C      1.988200   -0.304599    1.499523
C      1.886771    0.179529   -1.210531
C      3.210749    0.018651    0.753859
C     -3.800425    0.389127    0.170327
C     -1.694215   -0.885215    0.674993
C     -0.659318   -0.219890   -1.143462
O      2.019419   -0.527751    2.735835
O      1.794239    0.396483   -2.463847
O     -0.537046   -0.338353   -2.521629
O      4.431627    0.087804    1.385262
O     -1.315074   -1.317241   -0.581766
H      3.619493   -1.142397   -2.457581
H      4.475915    0.108260   -3.504339
H      5.384481   -0.986520   -2.447511
H      6.009507   -0.312535   -0.287490
H      6.415262    0.924541   -1.482383
H      5.730543    1.489891    0.045424
H     -5.329713    1.690796   -0.523120
H     -4.193906    1.219254   -1.803099
H     -3.714486    2.462229   -0.520293
H     -5.199109   -0.360012    1.655579
H     -3.875746    0.733310    2.327947
H     -5.254869    1.413512    1.447233
H      4.318244    1.831937    2.423618
H      5.723544    0.816601    2.790705
H      4.079578    0.311467    3.453336
H     -4.585099   -2.720324    0.522037
H     -3.246299   -2.761920   -0.640812
H     -3.854687   -0.791381   -1.585962
H     -5.346621   -0.875695   -0.527428
H     -2.170908   -2.823161    1.406688
H     -3.139945   -1.546587    2.174270
H     -0.760817    0.040155    2.383844
H     -0.355321   -1.720026    2.085979
H     -0.938838    1.832043   -0.474758
H     -2.159269    1.183655   -1.654646
H      4.147867    1.600821   -1.828641
H     -2.133370    1.100374    1.297401
H     -0.699481    0.585399   -2.891176
