14

C      1.869717    0.121196    0.251677
C     -1.874826   -0.214578   -0.371049
C      0.413714   -0.113005    0.653901
C     -0.407046   -0.004613   -0.614049
Br    -0.143994    1.755099   -1.341664
H      1.996054   -0.222855   -0.797756
H      2.061980    1.211710    0.359628
H      2.524352   -0.456835    0.944012
H     -2.256361    0.336647    0.507987
H     -2.071541   -1.295072   -0.262020
H     -2.424954    0.225158   -1.252678
H      0.080575    0.618386    1.403727
H      0.287402   -1.148007    1.056412
H     -0.055072   -0.813232   -1.287611
