58

C     -3.051236   -2.297933    1.543152
C     -2.944499   -4.104829   -0.121278
C     -2.929756    4.350903    2.164179
C     -0.151393    1.059390   -1.060159
C      3.759901    1.518700   -0.787280
C      5.086889    0.309275    0.761709
C      4.777886    2.442987   -0.879740
C      6.100247    1.248047    0.656762
C     -2.044192    2.346505    0.743230
C     -1.404672    1.019381    1.013227
C     -2.379148    0.066697   -1.014796
C     -2.523215   -1.411615   -1.298952
C     -2.182310   -3.029479    0.582639
C     -2.292592    2.992930    2.064091
C      3.919498    0.435166    0.047718
C      5.952002    2.337775   -0.176414
C      0.703466   -1.548745   -0.308915
C     -0.611944   -1.106366    0.153833
C      2.898864   -0.580003    0.201490
C      0.406776   -2.327922   -1.551029
C     -1.088619    0.237058   -0.246177
C     -1.537329   -2.137852   -0.456824
O     -1.997949    2.466375    3.128226
O      6.988404    3.257534   -0.255858
O      3.105016   -1.541190    0.978543
O      1.428708   -3.294323   -1.686088
O      1.682139   -0.562301   -0.465958
O     -0.773526   -2.953153   -1.267534
H     -3.866689   -2.977790    1.928667
H     -2.464409   -2.000235    2.452204
H     -3.576484   -1.423745    1.122819
H     -4.041185   -3.904088   -0.084946
H     -2.688909   -4.180662   -1.205460
H     -2.808943   -5.102707    0.384838
H     -2.081221    5.050784    2.397350
H     -3.396892    4.575551    1.189927
H     -3.661852    4.365343    3.011241
H      0.607764    1.515749   -0.371377
H     -0.745424    1.940119   -1.445532
H      0.273242    0.587304   -1.938150
H      2.827865    1.600020   -1.343896
H      5.257856   -0.541364    1.441814
H      4.643987    3.286650   -1.535058
H      7.008271    1.105870    1.242668
H     -3.032609    2.271590    0.245137
H     -1.406976    3.036134    0.164982
H     -0.440253    1.211518    1.525546
H     -2.087072    0.453471    1.686446
H     -3.271565    0.369395   -0.444564
H     -2.384188    0.667123   -1.966183
H     -2.366636   -1.557870   -2.387055
H     -3.573430   -1.769353   -1.103490
H     -1.322730   -3.512645    1.133682
H      1.116588   -2.292048    0.430356
H     -0.686212   -1.264453    1.270617
H      0.304602   -1.750306   -2.462070
H      6.931172    4.074826   -0.851794
H      2.034916   -3.027194   -2.419236
