35

C      3.504643   -0.577213    1.017619
C      2.069478    1.586123    0.009061
C      2.102215    0.362982   -0.858127
C      0.704403    2.027008    0.238893
C     -2.487987   -1.427002    0.526187
C     -0.087262   -1.222453    0.824075
C     -3.889195    0.172936   -0.493692
C      2.799245   -0.815928   -0.292649
C     -1.366215   -0.628657    0.330618
C     -3.743051   -1.038714    0.121153
C     -0.394549    1.521158   -0.563645
C     -2.754184    0.977927   -0.689830
C      0.612148   -2.006996   -0.192805
C     -1.482726    0.598302   -0.286263
O     -4.867032   -1.856459    0.325638
O     -0.352223    2.023549   -1.761046
O     -3.049543    2.178258   -1.323419
O     -0.047039   -2.743132   -0.955344
O      1.968426   -1.927929   -0.297382
H      4.054448   -1.492613    1.343615
H      4.268149    0.207933    0.842177
H      2.882048   -0.278488    1.848900
H      2.713940    1.506606    0.909412
H      2.616728    2.376562   -0.594258
H      1.028287    0.092644   -1.093521
H      2.504630    0.613706   -1.888515
H      0.664649    3.160373    0.165170
H      0.465294    1.885475    1.339294
H     -2.403439   -2.408454    1.018521
H      0.557392   -0.478606    1.336911
H     -0.285820   -1.959236    1.665288
H     -4.881733    0.527027   -0.837072
H      3.643856   -1.076916   -1.008944
H     -4.714066   -2.734566    0.779329
H     -2.353916    2.854791   -1.505349
