54

C      4.126920    4.844956    0.298054
C     -4.086810    3.916668   -1.654603
C     -4.949012   -0.593581    1.434529
C      1.879188   -4.938339    0.392615
C      0.479632   -4.713795   -0.111857
C      0.691050    1.521876    1.215859
C      2.633072    0.969936   -0.070278
C     -0.950534    1.073761   -1.091847
C      1.208212    2.792889    1.320108
C      3.143687    2.240815    0.037475
C     -1.965797    2.012003   -1.283524
C      2.680303   -3.927353   -0.433906
C     -2.420797   -0.197414    0.236345
C     -0.618256   -2.530716   -0.216465
C      1.969323   -1.905632    0.506920
C      1.413146    0.590494    0.508467
C     -1.155702   -0.051701   -0.327472
C      0.512042   -3.353082   -0.771544
C      2.409833    3.159820    0.747641
C     -0.199146   -1.082287   -0.049635
C      1.024713   -0.780995    0.295467
C     -3.209839    1.842423   -0.713534
C     -3.426846    0.719809    0.053795
N      1.813837   -2.800705   -0.603233
O      2.908758    4.457330    0.870927
O     -4.229040    2.756387   -0.889291
O     -4.681323    0.540146    0.635117
H      4.289507    5.929024    0.565590
H      4.992037    4.265095    0.693407
H      4.165494    4.751181   -0.797239
H     -3.448817    3.696976   -2.536151
H     -3.610260    4.738104   -1.050283
H     -5.051606    4.285509   -2.068380
H     -4.921148   -1.521692    0.823989
H     -4.136083   -0.664458    2.206528
H     -5.920056   -0.530072    1.943610
H      2.228672   -5.962600    0.091538
H      1.975616   -4.748000    1.471723
H      0.167193   -5.522805   -0.818082
H     -0.264625   -4.743997    0.709875
H     -0.235298    1.219628    1.665491
H      3.223449    0.251454   -0.636725
H      0.017314    1.214463   -1.553381
H      0.626414    3.530531    1.887387
H      4.094473    2.487313   -0.428003
H     -1.731682    2.859008   -1.887589
H      3.623741   -3.650075    0.123763
H      2.958243   -4.362073   -1.405518
H     -2.668677   -1.067955    0.858284
H     -1.420969   -2.521804   -0.981453
H     -1.057584   -2.931142    0.711346
H      3.027338   -1.567297    0.515684
H      1.695223   -2.453288    1.431796
H      0.381476   -3.544740   -1.873333
