39

C      3.327708   -0.194585   -1.624799
C     -2.514326    1.111995    1.502874
C     -0.419263   -1.434927   -1.899943
C      2.467864    1.194740    0.803693
C     -1.961627   -2.011022    0.216712
C      2.652357   -0.767071   -0.645386
C     -1.624462    1.523774   -0.731448
C     -0.142453    1.724577   -0.371375
C      1.128735   -0.862215    1.232366
C     -0.343062   -0.713086    1.521935
C     -2.159736    0.452536    0.226997
C     -0.340550   -0.613583   -0.887963
C      0.647907    0.530865   -0.816670
C      1.676184    0.054694    0.189353
C     -1.207505   -0.694083    0.324635
H      4.013716   -0.783327   -2.207237
H      3.213875    0.851953   -1.862559
H     -3.517435    1.597224    1.362341
H     -2.663265    0.398105    2.353275
H     -1.839047    1.950049    1.795837
H     -1.134601   -2.244071   -1.925528
H      0.231672   -1.354237   -2.776307
H      3.388651    1.409399    0.204382
H      1.859304    2.101378    0.961113
H      2.849982    0.818229    1.793221
H     -1.267825   -2.854768    0.030449
H     -2.714768   -1.980559   -0.596936
H     -2.547168   -2.144469    1.159360
H      2.789971   -1.819234   -0.433492
H     -2.178748    2.455387   -0.673759
H     -1.670471    1.046490   -1.736945
H     -0.111505    1.923352    0.709352
H      0.190833    2.628860   -0.956885
H      1.710546   -0.698418    2.164867
H      1.253046   -1.930009    0.887146
H     -0.592680   -1.618364    2.164161
H     -0.458870    0.131023    2.228230
H     -3.088500    0.078648   -0.251137
H      1.095515    0.734749   -1.805222
