34

C     -3.034794    1.960509   -0.473261
C      0.387259   -0.923771   -1.081213
C     -1.867802   -1.489347    0.749491
C      3.250918    0.150685   -0.973537
C     -0.542234   -0.973507    1.196390
C      4.452729   -0.570641   -0.938138
C      3.468697   -0.797824    0.979228
C     -2.141299    0.808187   -0.198197
C      2.623854    0.006590    0.246678
C     -2.716583   -0.522462   -0.003793
C     -0.836211    1.010662   -0.134475
C      1.331994    0.574821    0.701580
C      0.007683    2.191375   -0.281473
C      0.134578   -0.108318    0.141397
O     -3.033925   -1.030522   -1.284424
O     -0.305065    3.255976   -0.860844
O      4.527933   -1.109779    0.239791
O      1.234486    1.959442    0.326997
H     -2.550628    2.851912    0.010876
H     -4.052758    1.804485   -0.103151
H     -2.976259    2.153492   -1.563356
H      1.357654   -1.419652   -1.106835
H      0.230149   -0.303199   -2.008908
H     -0.381277   -1.743864   -1.175396
H     -1.767669   -2.428363    0.154732
H     -2.430107   -1.798912    1.672554
H      2.890299    0.714606   -1.811143
H      0.106866   -1.838810    1.452543
H     -0.650508   -0.344047    2.119925
H      5.190724   -0.675948   -1.719977
H      3.314527   -1.133384    1.993542
H     -3.719218   -0.376170    0.487257
H      1.244341    0.574518    1.807255
H     -2.748355   -0.428740   -2.000623
