39

C      4.010678   -0.584377   -0.292427
C     -2.155838    0.278518    1.941931
C     -0.706578   -0.283662   -2.568068
C      1.950274   -0.261071    1.404737
C     -2.190826    1.564772   -1.192495
C      2.889634   -0.114449   -0.814495
C     -1.587523   -1.656629    0.470141
C     -0.096291   -1.803134    0.476616
C      1.114240    1.388898   -0.176934
C     -0.305163    1.532203    0.371875
C     -2.063250   -0.239406    0.529313
C     -0.479464   -0.208633   -1.288926
C      0.589834   -0.986396   -0.584195
C      1.614102   -0.034954   -0.047666
C     -1.288446    0.686501   -0.380089
H      4.070358   -0.941818    0.729171
H      4.900239   -0.622063   -0.880283
H     -1.326991   -0.045709    2.585327
H     -2.338018    1.361527    1.931765
H     -3.082736   -0.182787    2.388905
H     -1.488777    0.297423   -3.026468
H     -0.112719   -0.931351   -3.190977
H      1.143403    0.102277    2.091992
H      2.273543   -1.284177    1.632217
H      2.827034    0.402469    1.628364
H     -2.718894    2.241015   -0.478756
H     -2.958828    1.002019   -1.750524
H     -1.586985    2.190471   -1.857829
H      2.894455    0.227461   -1.840402
H     -2.037936   -2.196929   -0.410805
H     -1.977675   -2.192944    1.360148
H      0.112007   -2.884869    0.231550
H      0.270022   -1.639185    1.487310
H      1.760604    2.110830    0.324981
H      1.013164    1.599483   -1.280631
H     -0.347173    1.339422    1.452360
H     -0.549140    2.623023    0.247761
H     -3.119909   -0.239179    0.132070
H      1.085568   -1.614590   -1.356566
