43

C      3.941842   -0.321811   -0.951269
C      3.436314    0.845762    1.132169
C     -1.384094   -0.232795    2.953243
C     -1.185831    1.309729   -1.126315
C     -2.873052    0.680331    1.265130
C     -3.499370    0.088382    0.047544
C      1.198863   -0.811424   -1.436222
C     -0.253458   -0.883211   -1.697660
C      0.705558    0.219830    0.814566
C      2.895073    0.486567   -0.211337
C     -1.621345    0.006743    1.683989
C      1.668797   -0.435141   -0.103717
C     -2.546832   -0.677654   -0.824342
C     -1.131760   -0.130521   -0.740732
C     -0.652164   -0.387012    0.649074
O     -3.028744   -0.579687   -2.145702
O     -0.480925   -1.788679    0.758089
H      3.736945   -0.336555   -2.044340
H      3.858215   -1.366668   -0.592249
H      4.954227    0.071802   -0.730411
H      4.551102    0.801719    1.147468
H      3.142917    1.872027    1.446202
H      3.081014    0.094404    1.860635
H     -0.477821   -0.719784    3.249071
H     -2.098371    0.059291    3.695493
H     -2.206149    1.635410   -1.454163
H     -0.853264    2.014848   -0.367132
H     -0.536826    1.496486   -2.031721
H     -3.643206    0.619439    2.089535
H     -2.684281    1.789603    1.167706
H     -3.958078    0.929588   -0.549247
H     -4.355326   -0.585529    0.282579
H      1.643020   -0.102150   -2.197031
H      1.662282   -1.799317   -1.727292
H     -0.518891   -0.505345   -2.720335
H     -0.599173   -1.944677   -1.697583
H      1.002326    0.033589    1.890346
H      0.742958    1.307076    0.687650
H      2.603313    1.409195   -0.776420
H      2.079188   -1.338274    0.441838
H     -2.511845   -1.720913   -0.491266
H     -4.014574   -0.497655   -2.100068
H      0.211423   -1.916057    1.454229
