45

C      1.253596   -2.448949    0.414795
C      5.377229   -0.455333   -0.115443
C     -0.478569    2.604031   -1.162987
C     -2.701775   -1.343583   -0.704674
C     -2.726245    1.256256   -0.559420
C     -2.270450   -0.290861    2.092427
C     -1.400587   -1.317301    1.350167
C     -1.596875    0.991952    1.574587
C     -0.105131    0.186212   -1.700810
C      0.989691    1.239090    0.192576
C      0.871228   -1.250072   -0.006725
C      4.072354   -0.358953    0.602470
C     -0.287809   -1.109462   -0.895191
C      1.640532   -0.072070    0.440868
C     -0.286921    1.204931   -0.565775
C     -1.483437   -0.796301   -0.044029
C     -1.475721    0.691066    0.126614
O      3.986020   -0.439122    1.859668
O      2.930549   -0.176908   -0.135119
H      0.717206   -3.340277    0.110188
H      2.101462   -2.593079    1.069330
H      5.997099   -1.184388    0.458479
H      5.812988    0.548203   -0.142610
H      5.176899   -0.859046   -1.143526
H     -0.759454    3.260070   -0.310454
H     -1.180162    2.612428   -1.993703
H      0.529623    2.954071   -1.488976
H     -2.416169   -2.340206   -1.153042
H     -3.110391   -0.748346   -1.517347
H     -3.461615   -1.605430    0.083449
H     -2.825752    2.314686   -0.176666
H     -2.643034    1.232570   -1.651939
H     -3.639345    0.740256   -0.189750
H     -3.283784   -0.301434    1.675022
H     -2.198161   -0.387899    3.171512
H     -1.777287   -2.338584    1.478763
H     -0.380009   -1.169315    1.742950
H     -2.281872    1.850898    1.766925
H     -0.668258    1.073585    2.132223
H     -0.907894    0.298388   -2.446261
H      0.906611    0.271172   -2.107891
H      1.711580    1.837144   -0.445349
H      0.921917    1.865313    1.130469
H     -0.442833   -1.936598   -1.591297
H      1.792955   -0.168806    1.551717
