27

C     -2.337486    0.885270   -0.232840
C     -0.825242    0.261998    1.638048
C      1.420417   -1.283142   -0.047669
C      0.124435   -1.994974    0.134034
C     -0.465561   -0.461650   -1.705314
C      2.489230    0.953014    0.034582
C      1.364833    0.031102   -0.226575
C     -0.990066   -1.182243   -0.452749
C      0.075368    0.590557   -0.723452
C     -1.079326    0.200160    0.166877
O      2.086302    1.866185    1.002823
H     -3.094824    0.175890   -0.652150
H     -2.802030    1.466388    0.613121
H     -2.167767    1.645888   -1.040932
H     -1.695447   -0.188147    2.152252
H     -0.767646    1.312325    1.942518
H      0.088483   -0.257002    1.962462
H      2.366129   -1.836306   -0.031317
H     -0.032907   -2.195800    1.213524
H      0.119712   -2.979532   -0.367982
H      0.301368   -1.015361   -2.249100
H     -1.302032   -0.053720   -2.313653
H      2.724360    1.455793   -0.944772
H      3.393858    0.402012    0.349387
H     -1.947258   -1.691229   -0.588497
H      0.093536    1.604238   -1.101256
H      2.859561    2.288289    1.468633
