39

C     -3.814971   -0.081396    0.525290
C     -2.383656    1.978691    0.411309
C      3.500702    0.922523    1.336389
C      2.230810   -1.608313   -1.013338
C      2.185040    1.410100   -0.653000
C      1.114902    1.051176   -1.645216
C     -1.315267   -1.660691    0.425773
C      0.039288   -2.181533    0.018758
C     -2.499564    0.501080    0.128587
C      2.305348    0.734706    0.486024
C     -1.328709   -0.223035    0.801138
C      0.252558    0.001026   -1.033443
C     -0.089801    0.498702    0.380273
C      1.181575   -0.190556    0.822536
C      0.998559   -1.107295   -0.360537
H     -4.262452   -0.726298   -0.270303
H     -3.753133   -0.668337    1.460171
H     -4.531835    0.773952    0.669871
H     -3.396175    2.412315    0.295630
H     -1.924771    2.167158    1.388128
H     -1.733829    2.450655   -0.367406
H      4.421149    1.118813    0.727019
H      3.374321    1.785483    2.002761
H      3.694163   -0.032846    1.871378
H      1.942760   -2.254919   -1.860405
H      2.742816   -2.294600   -0.280417
H      2.965747   -0.843715   -1.271374
H      2.844200    2.232959   -0.905687
H      0.498887    1.961109   -1.800908
H      1.544985    0.771840   -2.622035
H     -1.651200   -2.265839    1.294667
H     -2.083994   -1.839268   -0.381048
H      0.466365   -2.872656    0.801224
H     -0.120317   -2.832312   -0.872591
H     -2.417639    0.394365   -0.992055
H     -1.493112   -0.062355    1.901427
H     -0.597418   -0.361790   -1.608799
H     -0.096795    1.575863    0.501604
H      1.190466   -0.634766    1.808102
