48

C      3.574095   -2.022280   -0.315605
C      2.646070    2.018317    1.660459
C      2.670756    2.257038   -0.740922
C     -3.509648   -0.629086   -0.885387
C     -1.991102    0.764486   -2.200195
C     -2.667009   -0.075135    3.613249
C      1.776372   -0.443700   -1.728807
C      2.879003   -1.099662    0.329072
C     -0.223107    1.044454    0.020109
C      0.601187   -1.774585   -0.016953
C      2.142764    1.601305    0.488189
C     -2.414982    0.405159   -0.824258
C     -2.266059    0.390799    2.250364
C      1.124807    0.560525    0.495686
C     -0.732130   -1.343505   -0.593830
C      1.597482   -0.646505   -0.260961
C     -1.250316   -0.057263    0.032165
O     -2.501380    1.583391    1.945366
O     -1.652203   -2.341696   -0.190685
O     -1.661632   -0.405608    1.325378
H      3.247940   -2.455743   -1.247915
H      4.498413   -2.356845    0.098890
H      2.281033    1.560337    2.562317
H      3.403893    2.800369    1.689240
H      1.885456    2.705421   -1.375105
H      3.306331    3.139935   -0.435710
H      3.346986    1.627002   -1.334655
H     -3.271812   -1.386525   -1.667349
H     -3.758518   -1.062338    0.087406
H     -4.426313   -0.103491   -1.255024
H     -2.111917    1.869361   -2.404626
H     -0.981856    0.492605   -2.498374
H     -2.683289    0.285039   -2.954070
H     -2.757142    0.795833    4.297182
H     -1.914663   -0.750125    4.061412
H     -3.666533   -0.563305    3.592298
H      1.225655   -1.273682   -2.258750
H      2.847162   -0.603105   -1.995885
H      1.377001    0.500220   -2.098407
H      3.215460   -0.677801    1.256255
H     -0.113055    1.504835   -0.959072
H     -0.555333    1.828755    0.724895
H      0.470621   -1.943458    1.052106
H      0.918378   -2.662246   -0.567216
H     -2.899841    1.318007   -0.373472
H      0.958793    0.214026    1.548633
H     -0.727652   -1.345246   -1.679327
H     -1.258168   -3.244282   -0.268107
