46

C     -0.750158    4.106668    1.885214
C     -1.791959   -1.601309    0.470268
C      3.790281   -1.192177   -0.618894
C     -0.424989    2.988774    0.960359
C     -2.015179   -0.168990    0.606070
C      2.732189   -0.877538    0.406304
C     -0.668830   -2.143858    0.897881
C     -0.739500    0.643578    0.440421
C      1.516023   -0.222597   -0.216682
C      0.493255   -0.041302    0.909372
C     -0.411112   -3.581800    0.777686
C     -2.834697    0.312643   -1.703853
N     -1.921791   -0.487718   -2.141586
N     -3.651592    1.083599   -2.578936
N     -0.927422    1.853398    1.207623
N     -2.978877    0.380677   -0.285459
O      4.226489   -0.049532   -1.285086
O      0.406842    3.239877   -0.121375
O      3.242912    0.003922    1.350872
O      1.006610   -1.108900   -1.162997
O     -1.285065   -4.299281    0.253616
O      0.757489   -4.160213    1.222649
O      0.283766   -1.318837    1.474383
O     -0.000137    0.368285   -0.000000
H     -0.973528    3.703670    2.897944
H     -1.694858    4.556262    1.511411
H      0.073505    4.842313    1.970660
H     -2.531252   -2.225953    0.025133
H      3.461233   -1.963237   -1.326998
H      4.674329   -1.575354   -0.054582
H     -2.398241   -0.007389    1.657761
H      2.447967   -1.802280    0.912037
H     -0.623492    0.866300   -0.653392
H      1.758905    0.712426   -0.719289
H      0.995200    0.550817    1.732942
H     -1.797282   -0.554757   -3.175646
H     -4.552919    1.468054   -2.278664
H     -3.331711    1.266627   -3.552956
H     -3.828669    0.855045    0.081002
H      3.940803   -0.129699   -2.226138
H      0.343348    2.636802   -0.942524
H      3.862519    0.619332    0.884790
H      1.315518   -2.035948   -1.027299
H      0.803941   -5.142115    1.535955
H      0.816384   -0.184099    0.000000
H     -0.816247   -0.184186   -0.000000
