45

C      1.455433   -0.124155   -2.394076
C      5.429630   -0.086822    0.043849
C     -0.590250   -0.565479    2.729106
C     -2.595398   -1.304303   -1.115037
C     -2.767676   -0.345044    1.238698
C     -2.432528    1.760999   -1.001458
C     -1.491783    0.825380   -1.775235
C     -1.770289    1.691705    0.384510
C     -0.021423   -1.532426    0.579740
C      0.882320    0.641177    1.179870
C      0.996587   -0.224648   -1.158915
C      4.127846    0.591387   -0.171935
C     -0.153295   -1.106156   -0.874875
C      1.651092    0.550422   -0.096143
C     -0.341267   -0.195606    1.266886
C     -1.459203   -0.362132   -0.856503
C     -1.530835    0.251186    0.547507
O      4.099155    1.767333   -0.600752
O      2.945356   -0.043970    0.089151
H      1.017011   -0.672965   -3.235423
H      2.301264    0.510233   -2.665614
H      5.514222   -0.964802   -0.628747
H      6.243227    0.637197   -0.061714
H      5.419032   -0.511072    1.084766
H     -1.217609   -1.457003    2.833354
H     -0.900322    0.297644    3.330976
H      0.426377   -0.859725    3.122411
H     -3.552472   -0.900814   -0.783707
H     -2.350391   -2.287726   -0.672414
H     -2.664417   -1.441535   -2.218461
H     -2.635329   -0.071837    2.323596
H     -3.689524    0.203183    0.926134
H     -2.828701   -1.426128    1.113669
H     -3.428452    1.311101   -0.989269
H     -2.412598    2.773062   -1.414235
H     -1.880491    0.608011   -2.779996
H     -0.481856    1.287227   -1.828218
H     -0.905224    2.343364    0.333170
H     -2.547543    2.080531    1.090656
H      0.973980   -1.896523    0.824410
H     -0.843344   -2.219048    0.816980
H      1.581829    0.272253    1.991517
H      0.722066    1.709692    1.442057
H     -0.175530   -2.023773   -1.489390
H      1.881319    1.588777   -0.480893
