47

C      5.387253   -1.838812   -0.096781
C      5.409081   -0.233914   -1.992645
C     -6.468672   -1.210974   -2.657760
C     -2.992071    0.162834   -0.815169
C     -4.150417   -0.305739   -1.405346
C      2.144950   -0.799356   -0.750328
C      3.311982   -1.260438   -1.161697
C     -3.494950   -1.044867    1.128487
C     -1.575662    1.700421    1.626633
C      3.310064    1.967041    1.399392
C     -2.630884   -0.193569    0.469603
C      2.138745    0.332300    0.147933
C     -4.653297   -1.515205    0.542184
C     -0.339221    2.424576    1.904165
C      2.123913    2.492181    1.862190
C     -5.007771   -1.155286   -0.740926
C     -1.379338    0.324926    1.080550
C      3.337521    0.876790    0.533283
C      0.929953    1.897842    1.437077
C      0.910012    0.818169    0.581257
C      4.618801   -0.692695   -0.762091
O     -5.530096   -2.378262    1.209055
O     -0.381030    3.493993    2.542454
O      2.035639    3.573363    2.723452
O     -6.182320   -1.631150   -1.337745
O     -0.289277    0.244902    0.173035
O      4.553165    0.393481    0.102426
H      6.452106   -1.845801   -0.404997
H      4.960887   -2.824545   -0.367810
H      5.303975   -1.762866    1.010302
H      4.781411   -0.202953   -2.895352
H      5.874233    0.757913   -1.834431
H      6.273812   -0.937416   -2.160085
H     -7.426461   -1.599594   -3.009756
H     -6.512471   -0.086788   -2.691276
H     -5.624283   -1.474654   -3.357646
H     -2.318524    0.839245   -1.356862
H     -4.432326   -0.020214   -2.424233
H      1.199243   -1.228780   -1.054239
H      3.337132   -2.103658   -1.831823
H     -3.235281   -1.345920    2.150314
H     -2.286529    2.273658    0.966176
H     -2.140825    1.599294    2.599130
H      4.227551    2.420984    1.723882
H     -1.113563   -0.337002    1.956161
H     -5.263526   -2.637568    2.149114
H      2.807367    4.074113    3.090738
