31

C     -2.328085   -1.730709   -0.181393
C     -1.022200   -1.601939    0.038031
C      2.100796    1.811278    0.001309
C      0.766269    1.600001    0.340969
C     -1.921001    0.531954    0.002981
C     -4.236849   -0.192623   -0.627744
C      3.187785   -2.006125   -0.613727
C     -3.040775   -0.485828    0.216854
C     -0.768451   -0.276630    0.593007
C      2.623568    0.579431   -0.243246
C      3.914253    0.226910   -0.618983
C      1.631324   -0.343112   -0.055624
N      4.916048    1.208027   -0.804174
N      4.173700   -1.082761   -0.799583
N      1.952448   -1.644168   -0.252023
N      0.500273    0.282561    0.300504
O     -4.809868    0.987655   -0.156333
H     -2.845838   -2.596360   -0.589225
H     -0.321953   -2.402077   -0.186774
H      2.634975    2.761682   -0.061219
H      0.108812    2.429128    0.587480
H     -1.786006    0.632671   -1.092242
H     -2.094867    1.470281    0.521262
H     -4.967269   -1.011106   -0.464104
H     -4.016328   -0.094273   -1.700082
H      3.490886   -3.040744   -0.782700
H     -3.327713   -0.461486    1.277220
H     -0.992168   -0.327538    1.693549
H      5.191287    1.796903    0.001967
H      5.375930    1.350401   -1.715849
H     -4.088985    1.628595    0.069372
