27

C     -1.698628   -0.538970   -0.888618
C     -0.988059   -1.129266    1.363584
C     -0.814940    1.877662    0.824208
C      1.005250   -0.244313   -1.638749
C      0.561129    1.137485   -1.149137
C      0.693797   -1.179129   -0.499463
C      1.675869   -0.875236    0.603065
C      1.252666    0.499821    1.069397
C     -0.567884   -0.510676    0.071754
C      0.056665    0.860965    0.239456
Br     3.488901   -0.805520   -0.103341
O      1.756821    1.185906    1.930072
H     -2.635050   -0.327351   -0.329937
H     -1.629420    0.162600   -1.722265
H     -1.815662   -1.604223   -1.244954
H     -1.062900   -0.408818    2.198891
H     -0.316522   -1.942573    1.709488
H     -2.006339   -1.601656    1.284534
H     -1.524488    1.474470    1.562159
H     -0.196656    2.685075    1.278606
H     -1.393837    2.382068    0.007953
H      2.121793   -0.210251   -1.726353
H      0.550787   -0.518251   -2.587318
H      1.426229    1.842285   -1.104615
H     -0.179643    1.595200   -1.811681
H      0.564401   -2.208070   -0.749431
H      1.675722   -1.599233    1.412695
