50

C     -1.123493   -1.620516   -1.522079
C     -7.194632    1.586010    0.104114
C     -6.464483    1.447205    1.261411
C     -6.821794    0.976238   -1.070235
C     -5.322035    0.673933    1.251485
C     -5.676336    0.210991   -1.046317
C     -2.559361    0.087737   -0.361723
C     -3.685742   -0.807054    0.010044
C      3.435690   -1.878613    0.609972
C      4.757924   -2.218377    0.492103
C      3.951659    0.411894    0.551368
C      1.083254    0.178714   -0.595792
C     -1.220401   -0.548184   -0.495632
C     -4.909008    0.039222    0.085476
C      3.006946   -0.571307    0.642163
C      5.313275    0.128458    0.429368
C      5.725232   -1.190891    0.399017
C      1.570056   -0.226626    0.769381
C      6.207948    1.271690    0.343494
N      5.792947    2.464068    0.376230
N     -0.284117    0.514725   -0.680469
O      7.029424   -1.538712    0.282744
O      1.391364    0.780051    1.693538
O      7.607983    1.132975    0.217091
Cl     0.688284    0.000000    0.000000
H     -0.489803   -2.492302   -1.180075
H     -0.601795   -1.240755   -2.447038
H     -2.062674   -2.048373   -1.863234
H     -8.083547    2.194164    0.138518
H     -6.747972    1.919305    2.181103
H     -7.420561    1.106133   -1.971862
H     -4.700961    0.521940    2.124597
H     -5.379678   -0.276175   -1.984624
H     -2.475253    0.877135    0.424646
H     -2.847531    0.631081   -1.288083
H     -3.913844   -1.593394   -0.715436
H     -3.510311   -1.318077    0.989427
H      2.722453   -2.714100    0.678459
H      5.103200   -3.240838    0.466551
H      3.576766    1.428652    0.578350
H      1.667346    1.096181   -0.877108
H      1.399340   -0.592042   -1.340324
H     -0.982364   -1.010443    0.508496
H      1.059927   -1.128704    1.156861
H      4.868538    2.860340    0.458307
H     -0.536663    1.345506   -0.145334
H      7.834437   -1.023134    0.206595
H      1.682547    1.644861    1.336395
H      8.226101    1.749405    0.752615
H     -0.688284    0.000000    0.000000
