23

C      2.425985    2.177513    0.891778
C     -3.129151    0.999056    0.925829
C      1.699218    1.447425   -0.162628
C     -2.053043   -0.028058    0.913896
C      0.838351   -0.746192   -0.895867
C     -0.396888   -1.396846   -0.300283
C      1.597792   -1.924328   -1.318036
C     -0.616955   -2.485792   -1.254208
O      1.250900    1.987966   -1.197649
O     -1.657002   -0.595315    1.977129
O      2.849212   -2.091036   -1.402252
O     -1.654834   -3.009740   -1.703712
O      1.499967    0.093251   -0.003807
O     -1.404961   -0.444706   -0.232452
O      0.668211   -2.906229   -1.636454
H      1.946650    3.152420    1.065432
H      2.418515    1.611600    1.835770
H      3.489014    2.331657    0.621065
H     -2.836691    1.857822    0.319124
H     -3.203903    1.366167    1.988472
H     -4.113182    0.569350    0.655256
H      0.499118   -0.128131   -1.760286
H     -0.116320   -1.837855    0.673884
