30

C     -0.945230    0.494336   -0.786184
C     -0.423311   -0.416400    1.341612
C      2.308778   -0.164552    0.826696
C     -3.442706    0.275779   -0.718615
C     -2.190449    0.478199    0.082012
C      0.102146    0.540222    0.286535
C      3.599374   -0.548365    0.514094
C     -1.870395   -0.686256    0.984489
C      3.999816   -0.612258   -0.804435
C      1.831207    0.083417   -1.402290
I      5.023615   -1.053844    1.981347
N      3.089843   -0.289718   -1.733079
N      1.406107    0.157255   -0.135623
O     -3.512543    1.355104   -1.630146
O     -2.639596   -0.726131    2.122624
O      5.276513   -0.988047   -1.199591
O      1.020265    0.374355   -2.307478
H     -0.917745    1.373019   -1.459346
H     -0.944789   -0.470321   -1.338583
H      0.164689   -1.359657    1.367558
H     -0.363221    0.124026    2.316904
H      2.016927   -0.121508    1.865485
H     -4.325128    0.393808   -0.063642
H     -3.457999   -0.638256   -1.304136
H     -2.205177    1.384494    0.685185
H      0.108317    1.599531    0.677465
H     -1.935607   -1.611435    0.372726
H     -3.246777    2.210939   -1.185052
H     -3.585408   -0.791489    1.921917
H      6.058484   -0.366248   -1.278449
