30

C     -1.220321   -1.301638   -0.038010
C     -3.317009    0.769930   -0.904321
C      3.290338   -1.992899    0.374098
C      0.729009    1.649063    0.331526
C     -2.967898    0.162595    0.442280
C     -0.804249   -0.173811    0.911858
C      2.655544    0.587831    0.109543
C      3.957996    0.193040   -0.089344
C      1.640709   -0.299539    0.445375
C     -2.710789   -1.313703    0.248186
F     -2.960788   -1.972383    1.420192
F     -3.427606   -1.827255   -0.812188
N      4.994618    1.112923   -0.434442
N      4.260965   -1.118578    0.049015
N      2.013172   -1.604017    0.568856
N      2.050819    1.790181    0.047668
N      0.485758    0.358859    0.575098
O     -3.512274    2.132550   -0.833402
O     -1.813624    0.745476    0.890743
H     -0.731140   -2.244588    0.233242
H     -1.099978   -1.004311   -1.087082
H     -4.264963    0.295933   -1.267986
H     -2.528110    0.570223   -1.645281
H      3.563178   -3.034911    0.477639
H      0.027710    2.495908    0.342632
H     -3.839056    0.342685    1.126888
H     -0.772906   -0.650229    1.927178
H      4.968413    2.094039   -0.078429
H      5.806040    0.860798   -1.040709
H     -4.473555    2.375828   -0.747369
