51

C     -4.213737   -1.528173   -1.583176
C     -3.433541   -1.233672    0.645249
C      4.575681   -1.902019    0.679850
C      4.839062    1.503105   -0.842599
C     -2.650197    3.220948    0.705544
C     -2.644081    1.772222    2.657215
C      0.581794    2.090180    1.379141
C     -0.580622    2.586227    1.749216
C     -1.723771   -2.421157   -1.996499
C     -3.106147   -0.808339   -0.775479
C      4.338097   -0.907324   -0.460821
C      4.289555    0.465796    0.136244
C      0.598103    0.921435    0.506118
C     -1.780098   -1.304328   -1.159997
C     -0.489969   -2.897147   -2.351739
C     -0.631069   -0.693685   -0.701687
C      1.781624   -0.746568   -0.739820
C      3.072552   -1.276965   -1.134928
C      1.808963    0.360399    0.087644
C     -0.616716    0.408302    0.121972
C      0.577722   -1.269057   -1.131391
C     -1.895338    2.056928    1.353661
O     -0.468779   -3.915980   -3.114778
O      3.118457   -2.085625   -2.091528
O      2.997583    0.902447    0.493690
O      0.611726   -2.318261   -1.917020
O     -1.811656    0.948799    0.524941
H     -5.156165   -1.032636   -1.257095
H     -4.313621   -2.586367   -1.284305
H     -4.049641   -1.507590   -2.652597
H     -2.564533   -1.532003    1.246461
H     -4.010303   -0.487318    1.213407
H     -4.097780   -2.154746    0.669182
H      3.588551   -2.333198    1.006322
H      5.153709   -2.733832    0.270725
H      5.072062   -1.442625    1.537563
H      5.941722    1.435757   -0.876452
H      4.375405    1.360606   -1.842252
H      4.576026    2.510274   -0.450219
H     -3.166334    3.808697    1.464285
H     -3.352180    2.768135   -0.040080
H     -1.908722    3.787710    0.123039
H     -2.663972    2.749077    3.220179
H     -2.085327    1.078590    3.296755
H     -3.692222    1.507700    2.494301
H      1.537620    2.489711    1.677706
H     -0.583674    3.451673    2.395183
H     -2.628122   -2.881682   -2.340007
H     -3.276321    0.262158   -0.799500
H      5.202739   -0.955920   -1.148168
H      4.955885    0.509342    1.036541
