28

C      1.281317   -1.081273    0.729008
C      3.973995    0.282176   -0.488962
C     -2.656903   -0.143516    2.019672
C     -0.918086   -0.091222   -2.057019
C      2.291520   -0.383793    1.212623
C      2.661538    0.626060    0.181277
C      0.962712   -0.569347   -0.595990
C     -2.606827    0.090007   -0.645184
C     -3.827749    0.254515    0.007949
C     -1.447886   -0.186153    0.052447
F      2.936005   -0.488335    2.401614
N     -5.012073    0.538824   -0.728012
N     -3.798357    0.127380    1.344636
N     -1.473328   -0.301801    1.373455
N     -2.236277    0.139624   -1.936352
N     -0.426985   -0.294254   -0.817069
O      5.010449    0.272671    0.414043
O      1.668782    0.618472   -0.774052
H      0.796084   -1.884143    1.246458
H      3.919275   -0.691824   -1.011805
H      4.176465    1.075792   -1.236254
H     -2.745728   -0.224785    3.090926
H     -0.378131   -0.104709   -2.996594
H      2.702059    1.620188    0.631532
H      1.286119   -1.309953   -1.365954
H     -5.752275    1.156168   -0.350777
H     -5.143250    0.120114   -1.666825
H      4.757535    0.833116    1.190887
