27

C      2.951559    0.950247   -0.368848
C      1.593450    0.822247   -0.172992
C     -0.809348   -1.581150    0.056817
C     -3.252087    1.139626   -0.336041
C     -2.007392    0.306400   -0.520084
C      3.790293    0.002450    0.208798
C     -0.302428   -0.346612    0.774083
C      1.925415   -1.127586    1.126959
C     -2.257235   -1.153331   -0.155561
F     -2.860222   -1.842938   -1.169498
F     -2.898507   -1.234613    1.038034
N      3.254527   -0.996253    0.931160
N      1.134133   -0.200877    0.559862
O     -2.918683    2.452596   -0.653820
O      5.174289    0.070130    0.051908
O      1.457919   -2.077286    1.810517
O     -0.990819    0.733239    0.294608
H      3.386012    1.736775   -0.938751
H      0.897157    1.529421   -0.598337
H     -0.713925   -2.490707    0.646006
H     -0.313380   -1.619439   -0.933168
H     -4.071578    0.788870   -0.961879
H     -3.541253    1.080846    0.746622
H     -1.703055    0.352623   -1.579766
H     -0.463121   -0.462740    1.874063
H     -2.023420    2.552868   -1.016781
H      5.561700    0.615194   -0.713911
