26

C      3.151127    0.166762    0.825700
C      1.777504    0.194467    0.994674
C     -0.749686   -0.896887    1.161854
C     -3.511619   -0.001153   -0.293413
C     -1.857254   -1.508816    0.773055
C     -2.302344   -0.889731   -0.499715
C      3.706771    0.052519   -0.421957
C     -0.446298    0.141174    0.144983
C      1.526319   -0.005308   -1.318959
F     -2.437846   -2.527146    1.469139
N      5.001577    0.023487   -0.614664
N      2.869841   -0.031277   -1.471309
N      0.976231    0.106648   -0.096875
O     -3.239119    0.999703    0.636684
O      0.656601   -0.091305   -2.397014
O     -1.198362   -0.182313   -0.966002
H      3.814648    0.234732    1.675186
H      1.357195    0.285693    1.993521
H     -0.163140   -1.123558    2.077566
H     -3.907406    0.399783   -1.224631
H     -4.301147   -0.640741    0.167701
H     -2.512565   -1.688017   -1.238784
H     -0.726218    1.155687    0.540493
H      5.635097    0.089556    0.209863
H     -4.025051    1.219107    1.206551
H      0.905145    0.197575   -3.333649
