27

C      3.069253    0.940356   -0.595315
C      1.858162    0.463853   -0.978278
C     -0.936704   -1.823373   -0.161951
C     -2.890155    1.286114   -0.181529
C     -2.129101    0.063907   -0.610025
C      3.631498    0.491665    0.589596
C     -0.067361   -0.849836   -0.750721
C      1.738604   -0.856376    0.898002
C     -2.011358   -0.950825    0.511145
F     -1.575177   -0.305541    1.616159
F     -3.169747   -1.664402    0.695227
N      2.950979   -0.416283    1.336864
N      1.169707   -0.455144   -0.221595
O     -2.314728    1.858541    0.940445
O      4.847725    0.909571    1.065315
O      1.130345   -1.688589    1.597023
O     -0.827014    0.334098   -0.921945
H      3.648574    1.662648   -1.155334
H      1.454176    0.844556   -1.917318
H     -1.547740   -2.322999   -0.986060
H     -0.612797   -2.639739    0.442239
H     -3.072356    1.994007   -0.999114
H     -3.912481    0.922321    0.132824
H     -2.689768   -0.446252   -1.429455
H      0.150651   -1.142398   -1.829612
H     -2.925022    1.898133    1.701172
H      5.031836    1.891988    1.212241
