28

C     -0.663273    0.491268   -1.357410
C      1.644451   -0.959159    1.067645
C     -3.393817   -0.674362    0.774808
C      2.919176   -0.713323    1.527055
C     -2.066389   -0.096846    0.390737
C     -0.112089   -0.649820   -0.549413
C      3.766727    0.123276    0.810511
C      2.033062    0.399548   -0.741370
C     -2.164730    0.313434   -1.084441
F      3.410483   -1.255608    2.671277
F     -2.673536   -0.742626   -1.827500
F     -2.856415    1.472436   -1.252929
N      4.979411    0.362703    1.239108
N      3.292485    0.659155   -0.312861
N      1.203530   -0.407825   -0.057426
O     -4.337043    0.368499    0.704495
O      1.664657    1.026829   -1.934390
O     -1.030148   -0.989467    0.408174
H     -0.408086    1.484339   -0.955628
H     -0.524898    0.384468   -2.441105
H      1.012653   -1.616478    1.652894
H     -3.718026   -1.436960    0.031411
H     -3.406583   -1.108983    1.789943
H     -1.866223    0.823206    0.963992
H     -0.040448   -1.527141   -1.257061
H      5.566663    0.993698    0.664695
H     -3.955395    1.223054    0.999519
H      1.723799    2.052686   -1.924730
