28

C     -1.025830    0.004116    1.344216
C      1.769558   -0.728131   -0.931978
C     -2.948838    0.286669   -1.396706
C      3.047992   -0.311878   -1.239357
C     -2.248416   -0.749810   -0.510064
C     -0.205062   -0.838111    0.394767
C      3.674196    0.540656   -0.352910
C      1.761716    0.488964    1.019798
C     -2.439330   -0.438201    0.939300
F      3.680449   -0.728120   -2.386082
F     -3.367650    0.523546    1.197137
F     -2.716122   -1.625650    1.630901
N      4.867239    0.928345   -0.640966
N      3.014005    0.915010    0.747969
N      1.120548   -0.335408    0.189762
O     -2.420309    1.559395   -1.167561
O      1.116843    0.905874    2.177058
O     -0.908033   -0.782026   -0.778827
H     -0.905115   -0.272431    2.397044
H     -0.968301    1.082156    1.135615
H      1.303399   -1.398964   -1.649723
H     -2.787481   -0.000416   -2.455738
H     -4.039299    0.290939   -1.197625
H     -2.683393   -1.732822   -0.754143
H     -0.152740   -1.862115    0.832097
H      5.377877    1.571283   -0.001667
H     -2.427937    2.130804   -1.972777
H      1.510034    0.576326    3.049206
