30

C     -4.058122    1.068718    0.340454
C      0.996672    1.376248    0.353571
C     -1.625998    0.487873    0.353515
C      3.618556   -0.723309    0.289836
C     -2.942703    0.093066    0.269826
C      2.685129    0.047390   -0.616908
C      0.744164   -0.092186    0.364718
C     -3.217043   -1.248838    0.116310
C     -0.945271   -1.755118    0.132422
C      2.468060    1.436647   -0.078017
F      3.290296    1.700358    0.976213
F      2.632564    2.368723   -1.077878
N     -2.231019   -2.168786    0.047661
N     -0.638789   -0.453436    0.282595
O      3.818747   -1.994217   -0.222934
O     -4.520704   -1.663296    0.030905
O     -0.019547   -2.605409    0.069418
O      1.453535   -0.554277   -0.744171
H     -4.380196    1.254010   -0.713676
H     -4.912680    0.676374    0.891020
H     -3.675915    2.026502    0.746353
H      0.893870    1.848160    1.354543
H      0.408169    1.894619   -0.426752
H     -1.384783    1.524098    0.472978
H      3.237220   -0.817007    1.312407
H      4.560325   -0.136276    0.347633
H      3.163672    0.084337   -1.616438
H      1.167153   -0.545886    1.272516
H      4.739584   -2.040934   -0.579329
H     -5.324945   -1.088148   -0.046324
