121

C      0.420081   -2.456252    0.975499
C      1.728274   -2.777819    2.983621
C     -1.017263    1.222790    4.024721
C     -4.161890    1.006670    2.895673
C     -7.297193   -0.650525   -0.612965
C      8.375488    1.702794   -4.284748
C      8.152861   -4.183778   -1.490589
C     -0.157995    0.427037    1.873502
C      1.244525    0.315338    2.377946
C     -6.787988   -1.715684   -3.305588
C     -4.449386   -0.667765    0.267427
C     -5.705342   -1.247788   -2.365085
C     -3.172866   -0.187461    0.942128
C     -2.743336    3.245348    2.279735
C     -5.602192    2.723911   -0.987666
C      7.263327    0.914301    2.453089
C      6.216593   -0.826128   -3.542012
C      1.718282   -2.090183    1.635639
C     -0.948579    1.523807    2.590037
C     -2.079767    1.927351    1.812720
C     -7.505943   -0.615956   -4.008666
C     -3.899269    3.381900    1.307699
C     -6.928337    2.269505   -1.580511
C      2.082814   -0.669155    1.673566
C      5.866324    0.339301    2.480794
C      7.502953   -0.074330   -3.210893
C     -4.979449    0.337661   -0.675638
C     -6.643989    0.995253   -2.344907
C     -7.813032    0.594109   -3.204673
C      5.987663   -1.127649    2.122490
C      8.353365   -1.015677   -2.374847
C      7.482504   -1.981276   -1.610846
C      5.293304   -1.166151    0.761181
C     -3.981839    2.076038    0.637737
C      6.081449   -1.551000   -1.395985
C      4.246292   -0.057412    1.017974
C     -3.313260    1.120449    1.643849
C     -6.170151   -0.123259   -1.466756
C     -5.251409    1.645731    0.067533
O      7.869994    0.666004    1.232351
O     -8.740857   -1.159600   -4.432787
O     -5.063051    3.841881    1.887312
O     -7.440732    3.200172   -2.480157
O     -8.993587    0.495376   -2.482959
O      5.268207   -1.859379    3.041003
O      9.052347   -0.243065   -1.457462
O     -6.345451    1.610919    0.877564
O      8.221956    0.308033   -4.310546
O      7.553899   -3.194470   -2.254619
O      5.463547   -0.832648   -2.388586
O      3.454916   -0.522260    2.022828
O      5.135527    0.948342    1.459004
O      6.087844   -0.695975   -0.264516
H      0.002436   -1.703432    0.306001
H     -0.346101   -2.734545    1.729678
H      0.540115   -3.426724    0.386318
H      1.645136   -3.866132    2.777772
H      0.850751   -2.501895    3.601113
H      2.670469   -2.641228    3.525164
H      0.017749    1.355933    4.460999
H     -1.326458    0.219471    4.309490
H     -1.585051    2.019806    4.605343
H     -3.573803    1.040668    3.833660
H     -4.920530    1.806643    2.997537
H     -4.765732    0.048949    2.844310
H     -8.027340    0.132603   -0.313478
H     -7.921864   -1.377326   -1.213188
H     -6.974540   -1.219475    0.265309
H      7.361852    2.145616   -4.299423
H      8.933931    2.028193   -3.362817
H      8.979152    2.071263   -5.143495
H      7.633439   -4.397509   -0.538988
H      9.167882   -3.781106   -1.194604
H      8.300131   -5.121680   -2.023957
H     -0.193702    0.622618    0.788190
H     -0.743277   -0.496582    2.117047
H      1.713043    1.331233    2.183589
H      1.293898    0.228971    3.489018
H     -7.460782   -2.481528   -2.858689
H     -6.231098   -2.293425   -4.104303
H     -5.131831   -0.981376    1.075289
H     -4.154326   -1.598204   -0.267754
H     -4.802716   -0.975727   -2.925340
H     -5.449444   -2.147808   -1.735692
H     -2.922436   -1.027424    1.646342
H     -2.387550   -0.147747    0.189445
H     -1.959687    4.021589    2.067897
H     -3.035291    3.211446    3.324719
H     -5.782352    3.644561   -0.377472
H     -4.808229    2.833757   -1.722622
H      7.189555    2.008398    2.621584
H      7.910186    0.487439    3.251051
H      6.461551   -1.869044   -3.843528
H      5.714909   -0.307518   -4.385141
H      2.516582   -2.618963    1.036912
H     -0.199696    2.411269    2.521979
H     -1.715286    2.193289    0.772721
H     -7.001274   -0.320583   -4.970935
H     -3.622554    4.167656    0.541459
H     -7.596300    2.075976   -0.738184
H      2.094068   -0.327538    0.582592
H      5.371383    0.507029    3.443625
H      7.233363    0.796098   -2.593162
H     -4.182248    0.577290   -1.413949
H     -5.801690    1.239789   -3.053294
H     -7.957782    1.447493   -3.932052
H      7.019890   -1.477593    2.081266
H      9.094185   -1.516948   -3.020998
H      7.946923   -2.140282   -0.596158
H      4.796691   -2.116260    0.567094
H     -3.231286    2.086785   -0.214166
H      5.409632   -2.426630   -1.189113
H      3.791045    0.168316    0.064846
H      8.854350    0.523360    1.335571
H     -9.364511   -1.033209   -3.674809
H     -4.912450    4.734640    2.285384
H     -8.346930    3.471236   -2.155060
H     -9.716079    1.062732   -2.845481
H      5.477958   -2.818211    2.997943
H      9.735623   -0.803011   -0.980714
H     -6.505835    0.827171    1.415506
