26

C     -3.488534   -0.278528   -0.644219
C     -2.205498   -0.714558   -0.927987
C      2.099792    0.182866   -1.192131
C      3.742828    0.242964    0.682557
C      2.760696   -0.549484   -0.108211
C      0.842789   -0.013368   -1.385595
C     -3.697038    0.431817    0.520823
C      0.144713   -0.970256   -0.497692
C     -1.392285    0.217826    1.007132
F      0.120342    0.636344   -2.391864
N     -4.882269    0.877267    0.857604
N     -2.625870    0.650077    1.302755
N     -1.157070   -0.474984   -0.117252
O      3.188815    1.348546    1.308404
O     -0.310430    0.467978    1.848857
S      1.293827   -1.006644    0.905549
H     -4.335984   -0.461964   -1.281657
H     -2.084779   -1.275866   -1.865032
H      2.695252    0.886592   -1.818477
H      4.140925   -0.413098    1.485413
H      4.579561    0.509761    0.037942
H      3.256063   -1.438615   -0.521933
H      0.104810   -1.993474   -0.919088
H     -5.675706    0.679593    0.215416
H      3.245684    2.101967    0.643844
H     -0.360632    0.357240    2.854841
