28

C     -3.982974   -1.274278    0.593693
C      2.509717   -0.795881    0.373847
C     -1.644205   -0.315680    0.649989
C      4.224452    0.581810   -0.811892
C     -2.926054   -0.363373    0.092954
C      3.204570    0.492411    0.286734
C      1.243942   -0.793285    0.614488
C     -3.239724    0.462670   -0.966080
C      0.574983    0.516517    0.788636
C     -1.028742    1.326413   -0.866069
F      0.492492   -1.971284    0.714992
N     -2.271825    1.283994   -1.410480
N     -0.720052    0.523519    0.165095
O      5.226014   -0.372520   -0.664778
O     -4.503021    0.456116   -1.559606
O     -0.128639    2.095657   -1.285354
S      1.761087    1.583359   -0.071365
H     -4.782737   -0.632918    1.038970
H     -3.577261   -1.997303    1.344524
H     -4.484897   -1.836030   -0.228421
H      3.079762   -1.744555    0.232437
H     -1.457339   -0.986671    1.477944
H      3.806162    0.579680   -1.813192
H      4.735591    1.576766   -0.681893
H      3.605814    0.786959    1.268734
H      0.535620    0.820845    1.859802
H      4.991548   -1.050665    0.028583
H     -5.244283    1.047727   -1.172292
