121

C      3.684626   -1.490562    2.039472
C      2.732888   -3.317845    0.750443
C     -1.003216   -3.060440   -1.336967
C     -2.743352    0.045780    1.413813
C     -7.062550    2.473206    1.281415
C     11.461246    2.453273    2.167302
C      9.870226   -1.085060   -0.242954
C     -0.246798   -1.277846    0.091154
C      1.040107   -1.351381   -0.712293
C     -8.700919    1.901521   -1.936282
C     -4.763903    1.454934   -0.369659
C     -7.551155    2.448618   -1.099349
C     -3.685123    0.506758   -0.843409
C     -2.936451   -2.663644    0.863354
C     -7.088898   -1.174765    1.085090
C      5.765917    0.532517   -3.842829
C      8.081924    2.437200    1.894757
C      2.453058   -1.922418    1.278594
C     -1.373595   -1.629910   -0.848727
C     -2.716001   -1.740433   -0.286508
C     -9.991339    1.841436   -1.191660
C     -4.313234   -2.276271    1.439582
C     -8.267693   -0.280555    1.422939
C      2.253916   -1.019542    0.118868
C      4.934301   -0.364247   -2.916169
C      9.387330    2.636325    1.180777
C     -6.057768    0.713616   -0.189032
C     -8.443255    0.657419    0.263071
C     -9.734892    1.400065    0.254820
C      5.866760   -1.035954   -1.960824
C      9.225709    2.193535   -0.256784
C      8.631950    0.793740   -0.232800
C      5.554559   -0.275767   -0.660509
C     -4.746169   -1.174677    0.538003
C      7.228640    0.930374    0.364525
C      4.091761    0.016531   -0.873204
C     -3.408802   -0.498537    0.206994
C     -7.234108    1.576015    0.079864
C     -5.833419   -0.294489    0.947014
O      4.914617    1.237910   -4.692341
O    -10.739646    2.998197   -1.251923
O     -4.252487   -1.963836    2.767276
O     -9.392250   -1.102978    1.457372
O     -9.743870    2.545577    1.026339
O      5.421846   -2.365355   -1.782695
O      8.417110    3.028894   -0.997721
O     -5.706080    0.342593    2.158969
O     10.325685    1.756889    1.755789
O      9.403546   -0.041847    0.542349
O      7.043699    2.126125    1.015628
O      3.376281   -1.145120   -0.731665
O      4.109567    0.465679   -2.203783
O      6.340452    0.880620   -0.718315
H      4.547177   -2.161870    1.856618
H      3.962302   -0.449449    1.754294
H      3.519307   -1.499399    3.139354
H      3.037468   -3.284885   -0.315889
H      1.884456   -3.994572    0.889307
H      3.593999   -3.787845    1.295038
H     -0.460039   -3.603873   -0.550491
H     -0.403637   -3.015140   -2.264716
H     -1.936648   -3.596670   -1.603279
H     -3.428669    0.386312    2.222296
H     -2.199252    0.982908    1.120586
H     -2.028595   -0.624422    1.878844
H     -7.429415    3.520312    1.067631
H     -7.637987    2.145352    2.162683
H     -6.013809    2.590413    1.598144
H     11.890382    2.936674    1.255826
H     12.176810    1.720527    2.560606
H     11.129778    3.200228    2.923058
H      9.003086   -1.665985   -0.670635
H     10.474670   -1.820012    0.338589
H     10.450787   -0.749069   -1.125948
H     -0.300500   -0.182623    0.377896
H     -0.275723   -1.960416    0.931110
H      1.156875   -2.368179   -1.130256
H      1.016867   -0.649095   -1.565322
H     -8.429781    0.963079   -2.460743
H     -8.837796    2.659405   -2.763264
H     -4.388524    1.933587    0.553088
H     -4.832214    2.256857   -1.132181
H     -7.904303    3.466378   -0.758585
H     -6.724007    2.630859   -1.782445
H     -2.770954    1.109324   -1.030261
H     -3.941708    0.016062   -1.803693
H     -2.966580   -3.732202    0.506265
H     -2.232371   -2.621627    1.682350
H     -6.915441   -1.845854    1.924831
H     -7.333625   -1.671697    0.133403
H      6.338815    1.207845   -3.167137
H      6.461302   -0.090096   -4.415440
H      8.155887    1.692915    2.734523
H      7.809456    3.405416    2.379061
H      1.617138   -1.918107    2.006323
H     -1.316429   -1.019160   -1.787889
H     -3.436466   -2.134091   -1.095588
H    -10.607292    1.022596   -1.653709
H     -4.989433   -3.132708    1.300752
H     -8.178459    0.194700    2.395882
H      2.254434    0.030750    0.466656
H      4.335959   -1.076002   -3.533036
H      9.751942    3.673711    1.181793
H     -6.243383    0.129523   -1.100825
H     -8.438025    0.005284   -0.661079
H    -10.530066    0.741099    0.610671
H      6.918768   -0.990380   -2.234943
H     10.213418    2.091857   -0.770465
H      8.590868    0.418523   -1.258064
H      5.787751   -0.898956    0.202651
H     -5.042751   -1.660866   -0.438969
H      7.096534    0.032413    1.021804
H      3.683747    0.832296   -0.260796
H      4.238533    1.731413   -4.199734
H    -11.366199    2.945343   -2.016518
H     -3.566838   -2.456626    3.276608
H     -9.154334   -2.055933    1.497108
H    -10.645260    2.780591    1.348443
H      6.165337   -3.011034   -1.845738
H      7.920940    2.563731   -1.716278
H     -6.159029   -0.131306    2.895799
