25

C      3.023734   -1.238680   -0.335837
C      1.802895   -1.289881    0.305146
C     -0.914544    0.919689    1.239670
C     -2.090469   -0.651471   -0.549784
C     -2.183625    1.178368    0.997314
C     -3.027064    0.112510    0.390643
C      3.373059   -0.117402   -1.057655
C     -0.318614   -0.375784    0.930974
C      1.290589    0.835664   -0.470473
F     -2.753571    2.387343    1.281883
N      2.487577    0.893956   -1.102870
N      0.956114   -0.251792    0.227394
O     -4.026880    0.720866   -0.328191
O      4.603413   -0.024277   -1.723835
O      0.467278    1.782785   -0.515812
O     -1.144064   -1.239037    0.264363
H      3.700053   -2.084468   -0.265627
H      1.524031   -2.178775    0.878344
H     -0.327788    1.715755    1.681163
H     -1.605196    0.102935   -1.182805
H     -2.617534   -1.418921   -1.113186
H     -3.446144   -0.570899    1.165229
H     -0.088055   -0.859921    1.929680
H     -4.167331    1.666578   -0.063318
H      5.482136   -0.015137   -1.211098
