28

C      3.985546   -0.654432    0.444399
C     -1.678943    1.172637    0.326695
C      1.550622   -0.302874    0.193891
C     -2.768458   -1.239516   -0.366172
C      2.828419   -0.011223   -0.238597
C     -2.925868    0.891159    0.764874
C     -3.213787   -0.566080    0.890727
C     -0.856054   -0.053506    0.062553
C      3.041282    0.864945   -1.290843
C      0.691473    1.100928   -1.410254
F     -3.795525    1.866696    1.049699
N      1.931602    1.399522   -1.848405
N      0.464296    0.252936   -0.390401
O     -4.584874   -0.812432    1.044937
O      4.322510    1.175227   -1.745632
O     -0.339328    1.621372   -1.956438
O     -1.523673   -0.877325   -0.806493
H      4.314849   -1.548623   -0.153059
H      4.809852    0.046204    0.641286
H      3.649478   -1.036841    1.449450
H     -1.337875    2.169575    0.190510
H      1.375586   -0.997343    1.028375
H     -2.838042   -2.354497   -0.222806
H     -3.518660   -0.975482   -1.167582
H     -2.721846   -1.004712    1.786534
H     -0.796425   -0.580934    1.053022
H     -4.924806   -0.405259    1.894569
H      4.858649    1.861152   -1.224838
