26

C     -2.714511    1.215185    0.420024
C     -1.370827    0.880192    0.361689
C      0.961083   -0.237983   -1.194333
C      2.526342   -0.357935    0.885619
C      2.081824    0.448784   -1.326639
C      2.854676    0.753729   -0.099535
C     -3.650374    0.211051    0.286700
C      0.449895   -0.711971    0.122654
C     -1.890236   -1.335723    0.054539
F      2.460010    0.832918   -2.562664
N     -4.917167    0.455380    0.331620
N     -3.216774   -1.045811    0.106392
N     -0.951775   -0.380834    0.180917
O      4.225803    0.821115   -0.345700
O     -1.522997   -2.662924   -0.135106
O      1.169426   -0.226087    1.186504
H     -2.998283    2.237735    0.566148
H     -0.621257    1.669073    0.466306
H      0.339811   -0.498371   -2.061492
H      3.176604   -0.370747    1.753041
H      2.659403   -1.318131    0.327911
H      2.531546    1.699526    0.387165
H      0.557664   -1.816551    0.119516
H     -5.273883    1.419678    0.470135
H      4.361531    1.568500   -0.975326
H     -1.227535   -3.249797    0.658786
