26

C     -3.400174    0.885503   -0.228978
C     -2.138485    1.045030    0.354025
C      2.046562    1.155820    0.155208
C      3.605085   -0.687023   -0.480630
C      2.649300   -0.123199    0.537452
C      0.795469    1.343758    0.366011
C     -3.739795   -0.331841   -0.780947
C      0.020153    0.246741    0.991144
C     -1.606836   -1.132337   -0.155330
F      0.165481    2.542564    0.022209
N     -4.908593   -0.488376   -1.323975
N     -2.830194   -1.314847   -0.729980
N     -1.253409    0.040233    0.387373
O      4.662841    0.189542   -0.707031
O     -0.717053   -2.193239   -0.138885
S      1.134877   -1.160472    0.646703
H     -4.110156    1.713905   -0.248207
H     -1.946527    2.027950    0.765193
H      2.700437    1.940759   -0.314475
H      4.067350   -1.599543   -0.011003
H      3.116708   -1.031557   -1.393514
H      3.086664   -0.099881    1.552754
H     -0.028099    0.345840    2.098280
H     -5.197286   -1.379433   -1.744825
H      4.622273    0.902721   -0.003522
H     -0.796592   -2.838619    0.659370
