25

C      3.185417   -0.353263   -0.578129
C      1.828104   -0.514194   -0.763688
C     -1.115662   -0.356443    1.153778
C     -2.205179   -0.712519   -1.378616
C     -2.422470   -0.571857    1.103457
C     -3.085420   -0.400855   -0.218871
C      3.675122    0.489126    0.398510
C     -0.476893    0.031375   -0.128986
C      1.434005    0.965148    0.952428
F     -3.081397   -0.931939    2.241496
N      2.767706    1.137362    1.151088
N      0.943386    0.147733    0.004758
O     -3.664579    0.884315   -0.320959
O      5.047781    0.642059    0.574783
O      0.605326    1.599600    1.688958
O     -0.875896   -0.887343   -1.081014
H      3.908581   -0.884607   -1.194980
H      1.434930   -1.162531   -1.515326
H     -0.491984   -0.437824    2.030078
H     -2.556376   -1.659089   -1.866888
H     -2.346867    0.072945   -2.166676
H     -3.969142   -1.097778   -0.210406
H     -0.855966    1.031849   -0.484960
H     -3.234449    1.501765    0.337744
H      5.551922    1.466961    0.272420
