33

C     -3.116289    1.437240   -1.861727
C     -0.918396    1.028140   -0.716388
C      2.585464   -0.826590   -2.230550
C      1.491700    0.138299    1.951562
C     -2.440476    1.091878   -0.587076
C     -0.583605    0.446297    0.663657
C      2.934808   -0.472401    0.445103
C     -2.731592   -0.332486   -0.118824
C     -1.514001   -0.719366    0.731863
C      4.013504   -0.870683   -0.328341
C      1.688158   -0.257017   -0.144240
N      5.282188   -1.089112    0.275825
N      3.770115   -1.026307   -1.640527
N      1.551547   -0.440804   -1.464790
N      2.772446   -0.217381    1.742997
N      0.799235    0.121573    0.798304
O     -3.889014   -0.289714    0.620359
O     -1.983001   -0.896083    2.037630
H     -2.525477    1.213268   -2.771106
H     -3.401022    2.529946   -1.844166
H     -4.079998    0.893828   -1.941410
H     -0.467056    2.009636   -0.855696
H     -0.711330    0.292973   -1.505854
H      2.461536   -0.975129   -3.318394
H      1.074280    0.403724    2.925049
H     -2.646963    1.784360    0.247563
H     -0.931127    1.210749    1.396413
H     -2.793263   -0.944838   -1.034230
H     -1.047518   -1.661781    0.344971
H      5.416315   -1.522669    1.213119
H      6.145086   -0.804429   -0.235134
H     -4.175173   -1.223982    0.788813
H     -2.031082   -0.031140    2.504518
