44

C     -5.885082    1.873485   -0.736082
C      7.137118    0.915235   -0.941248
C     -4.622683    1.913417   -0.190681
C     -6.573148    0.678572   -0.719583
C      6.735000   -0.362124   -0.585016
C      6.204859    1.905391   -1.131202
C     -4.055137    0.770611    0.364971
C     -5.995900   -0.452950   -0.162673
C      5.384992   -0.604240   -0.429238
C      4.843762    1.633301   -0.966957
C     -4.130064   -1.640275    0.976735
C      2.984989    0.105087   -0.445258
C     -4.733651   -0.426391    0.386237
C      4.431878    0.368625   -0.613303
C     -0.448588   -1.192182    1.308987
C      0.201934    0.030244    0.677167
C     -1.797404   -1.430256    0.731527
C      1.452216    0.335682    1.415552
N     -2.815409   -1.415305    1.495920
N      2.610382    0.357202    0.904439
O      0.392821   -2.298006    1.148348
O      0.393803   -0.231389   -0.656201
O     -1.886147   -1.661592   -0.636411
O      1.333135    0.618222    2.769746
H     -6.314230    2.776834   -1.166740
H      8.187178    1.152134   -1.074905
H     -4.083612    2.849492   -0.203581
H     -7.564768    0.670359   -1.154184
H      7.511495   -1.098516   -0.449513
H      6.505573    2.901438   -1.408081
H     -3.061046    0.861888    0.778447
H     -6.561822   -1.368917   -0.166979
H      5.082233   -1.599567   -0.152391
H      4.146805    2.449857   -1.128574
H     -4.094114   -2.491994    0.252673
H     -4.779747   -1.947464    1.845604
H      2.430107    0.824344   -1.101210
H      2.795476   -0.932228   -0.779749
H     -0.518725   -1.017781    2.406656
H     -0.508456    0.868856    0.843679
H     -0.016260   -2.841297    0.423637
H      0.412452   -1.205283   -0.800790
H     -2.807153   -1.673608   -1.102109
H      2.074937    1.031088    3.326484
