26

C      2.844111    0.844400   -1.154697
C      1.476744    0.750239   -0.990076
C     -1.015504   -1.271529    0.539657
C     -2.467432    0.452882   -1.022530
C     -2.344588   -1.366759    0.557152
C     -3.102044   -0.127438    0.220840
C      3.685597    0.310515   -0.199283
C     -0.513147    0.093630    0.177241
C      1.755179   -0.359802    0.992634
F     -2.938949   -2.527114    0.864187
N      4.977112    0.360308   -0.284906
N      3.100942   -0.282460    0.857987
N      0.909285    0.153103    0.074667
O     -3.152753    0.771680    1.272695
O      1.205264   -0.978316    2.095601
O     -1.102912    0.522629   -0.982094
H      3.297178    1.328762   -2.018366
H      0.845869    1.181302   -1.761360
H     -0.354359   -2.102082    0.765951
H     -2.865117    1.458616   -1.277338
H     -2.775292   -0.209363   -1.872248
H     -4.160249   -0.383700   -0.071572
H     -0.832145    0.796482    1.001512
H      5.437986    0.816216   -1.097777
H     -3.308728    1.681564    0.915029
H      1.397951   -1.913763    2.397092
