47

C      4.696353   -2.335558   -0.262732
C      2.001240   -3.347338    0.141525
C      3.743163   -0.068736   -0.124454
C      1.182420   -1.000926    0.259558
C     -1.028045    0.719629    0.581356
C     -4.818144   -1.652792   -0.102173
C      3.535269   -1.431948   -0.090981
C      2.243690   -1.878658    0.102668
C      2.676293    0.802344    0.033283
C      1.379903    0.346198    0.227641
C     -1.749794    0.565980   -0.731862
C     -3.330530   -1.347706   -0.255306
C      1.920353    3.016824    0.143015
C     -3.182398    0.108572   -0.604873
C      0.570574    2.483904    0.345435
C      2.067335    4.383349    0.119115
C     -0.240641    4.708312    0.463477
N      2.916836    2.140487   -0.004599
N     -0.436073    3.388715    0.494549
N      0.993683    5.210189    0.278350
N      0.336225    1.163389    0.382342
O     -4.947805   -3.014738    0.219959
O     -1.057997   -0.159305   -1.687982
O     -2.727818   -1.631641    0.932885
O     -3.853551    0.320539   -1.835577
O      3.341340    4.898905   -0.071959
O     -1.176152    5.546955    0.602063
H      5.082392   -2.263533   -1.320546
H      4.398859   -3.381892   -0.013924
H      5.488761   -2.044936    0.456762
H      0.947993   -3.561291    0.319661
H      2.368098   -3.790347   -0.826196
H      2.613411   -3.784372    0.963610
H      4.752138    0.289827   -0.275747
H      0.205905   -1.409459    0.406558
H     -1.115449   -0.108578    1.274721
H     -1.552476    1.576014    1.103761
H     -5.377874   -1.413044   -1.036792
H     -5.262052   -1.085184    0.729246
H     -1.849139    1.608020   -1.209251
H     -2.947859   -1.981147   -1.095769
H     -3.698333    0.745236    0.134786
H     -5.863254   -3.118656    0.608445
H     -1.660358   -0.787381   -2.167344
H     -2.540248   -2.587951    1.084905
H     -3.180261    0.524206   -2.532310
H      4.134017    4.639521    0.509485
