26

C     -1.929701   -0.458497   -1.429809
C      1.338385    0.935100   -0.269258
C     -3.690756    0.099909    0.197359
C     -2.624767   -0.898613   -0.197059
C     -0.648457   -0.551732   -1.467503
C      2.489546    1.620596    0.076020
C      3.474434    0.928794    0.724854
C      0.060961   -1.081872   -0.305061
C      2.231133   -1.027026    0.687990
F      0.072356   -0.158018   -2.592011
F      2.616910    2.917477   -0.223363
N      4.562809    1.530339    1.064166
N      3.365532   -0.380994    1.036395
N      1.246181   -0.368985    0.048465
O     -3.064500    1.320084    0.419279
O      2.125939   -2.389216    1.015740
S     -1.241418   -0.886587    0.981101
H     -2.554358   -0.061211   -2.280665
H      0.536489    1.455946   -0.785794
H     -4.367712    0.216825   -0.682776
H     -4.289936   -0.258421    1.031950
H     -3.046672   -1.922235   -0.286671
H      0.202917   -2.160851   -0.420776
H      4.699386    2.557428    0.843628
H     -3.608060    2.098122    0.160218
H      2.043357   -3.076363    0.285948
