80

C      7.846689    2.886046   -1.257600
C      7.806267    2.030706   -0.034072
C      7.298748    0.640786   -0.431048
C      5.927967    0.750440   -1.019558
C      5.374619   -0.577566   -1.445065
C      5.281519   -1.493052   -0.241061
C      4.711236   -2.836150   -0.618232
C      4.652135   -3.725895    0.585673
C      3.795266   -3.169307    1.661421
C      2.370273   -2.942792    1.253412
C      1.540048   -2.368771    2.373844
C     -7.136479    0.182155   -2.408634
C     -4.927289   -0.550785   -2.662560
C     -7.314247    0.091001   -3.771000
C     -5.093837   -0.648257   -4.047628
C     -4.361163    3.067069    3.256829
C     -3.620980    2.270479    2.417524
C     -6.322753    2.695875    1.995630
C     -4.444914   -0.388915    0.190709
C      0.040997    1.402124    0.844926
C     -5.911241   -0.146549   -1.829983
C     -6.297127   -0.325434   -4.613565
C     -5.707857    3.293922    3.067207
C     -4.265513    1.685965    1.353695
C     -3.558844    0.791788    0.389331
C      0.146135   -2.135890    2.007511
C     -1.277211    1.575848    0.546698
C      0.521213    0.190573    1.318805
C     -5.776435   -0.018974   -0.374413
C     -5.610340    1.883778    1.123995
C     -2.158544    0.548059    0.711437
C     -0.335798   -0.866939    1.497250
C     -1.698609   -0.686240    1.188302
O     -6.507353   -0.409360   -6.001636
O     -6.436810    4.104458    3.930390
O     -0.655632   -3.085970    2.147414
O     -1.683659    2.833242    0.071184
O      1.879970    0.054600    1.611218
O     -2.603969   -1.702656    1.344258
O     -6.206083    1.274239    0.040690
H      6.941507    3.539099   -1.286883
H      8.773607    3.527351   -1.240433
H      7.826757    2.268066   -2.167669
H      7.137049    2.468034    0.736555
H      8.846000    1.915672    0.359236
H      7.308623    0.008181    0.492309
H      8.005308    0.207087   -1.167699
H      5.254914    1.249893   -0.261462
H      5.966262    1.430865   -1.918281
H      4.365792   -0.468153   -1.885538
H      6.072288   -1.073381   -2.157509
H      4.633489   -1.027694    0.522065
H      6.276736   -1.646479    0.180940
H      5.332840   -3.313640   -1.419341
H      3.696901   -2.745249   -1.054413
H      4.371174   -4.766024    0.305748
H      5.685795   -3.837283    1.026327
H      3.831928   -3.852313    2.552601
H      4.210373   -2.215402    2.024616
H      2.332692   -2.291789    0.388218
H      1.932555   -3.915890    0.944706
H      2.035952   -1.601856    2.977006
H      1.496906   -3.251994    3.127052
H     -7.930279    0.507954   -1.740066
H     -3.933997   -0.820872   -2.299527
H     -8.270408    0.349348   -4.204460
H     -4.288391   -0.973073   -4.678005
H     -3.846235    3.521579    4.088096
H     -2.564818    2.082183    2.557223
H     -7.377550    2.845535    1.808442
H     -3.987937   -1.172358   -0.414134
H     -4.662171   -0.772731    1.249476
H      0.785156    2.208275    0.725957
H     -3.571776    1.361051   -0.587964
H     -6.536857   -0.766276    0.041264
H     -6.851751   -1.271747   -6.432158
H     -7.403844    4.298505    3.838063
H     -1.037811    3.591728   -0.051589
H      2.506728    0.835464    1.483570
H     -2.643906   -2.605318    1.624886
