33

C      0.259617   -2.194996   -0.704457
C      2.420598    1.853473   -0.098757
C      1.154836    1.361754    0.130153
C     -2.619869    1.796395   -0.582007
C     -2.089492    0.520338   -0.013098
C      3.507745    1.106506    0.288134
C     -1.391473   -0.340359   -1.045795
C     -0.315165   -0.404215    0.992346
C      2.062174   -0.574606    1.108321
C     -0.778185   -1.327234   -0.076808
N      4.676927    1.591059    0.061458
N      3.288337   -0.073541    0.874223
N      0.992505    0.159644    0.727754
O     -3.285631    2.493420    0.401468
O     -2.306124   -0.940343   -1.898768
O      1.897903   -1.826193    1.731548
O     -1.798578   -2.114222    0.446860
O     -1.214593    0.660629    1.020228
H      0.335095   -3.118770   -0.113559
H     -0.171255   -2.530687   -1.696180
H      1.196566   -1.680457   -0.915738
H      2.513404    2.820171   -0.579951
H      0.293189    1.948748   -0.170443
H     -3.361437    1.510969   -1.380624
H     -1.881609    2.433100   -1.064971
H     -2.977663   -0.077786    0.332267
H     -0.641041    0.262414   -1.568767
H     -0.330626   -0.973974    1.948755
H      5.552952    1.089031    0.323370
H     -4.179235    2.125438    0.577186
H     -1.849281   -1.103622   -2.749544
H      2.658017   -2.149205    2.285124
H     -1.618608   -2.302883    1.410274
