51

C     -2.632350    0.627527    0.919901
C     -3.258231    1.599859    1.672442
C     -1.448351    2.342921   -0.261317
C     -2.670269   -4.725246    0.274122
C     -3.518192   -2.819214   -0.824611
C      4.029951   -0.323014   -1.039306
C     -1.718934    1.018139   -0.054971
C     -3.721799   -4.091844   -0.324125
C     -2.960023    2.931125    1.436249
C     -2.064842    3.329190    0.481878
C     -1.405853   -4.148831    0.402374
C      4.837195    0.956774   -0.960706
C     -2.281658   -2.229095   -0.711067
C     -1.218353   -2.892432   -0.096422
C      3.960770    2.005726   -0.337242
C      0.024430   -2.161952   -0.054008
C      2.483603    1.741479   -0.562756
C     -1.077349   -0.076405   -0.833074
C      0.094825   -0.677409   -0.101802
C      2.141594    0.398576    0.025773
O     -4.984099   -4.640822   -0.463921
O     -3.583612    3.938709    2.188676
O     -1.766000    4.665387    0.245325
O     -0.402715   -4.827788    1.008235
O      5.888721    0.708777   -0.051294
O      4.242986    3.284446   -0.837638
O      1.090566   -2.799821    0.025739
O      1.817901    2.790406    0.111554
O      3.291737   -0.385142    0.162415
O     -2.078969   -0.985687   -1.198445
O      1.254501   -0.325873   -0.739823
H     -2.851818   -0.430266    1.088405
H     -3.969837    1.333315    2.434502
H     -0.724818    2.609896   -1.036421
H     -2.830053   -5.721587    0.665891
H     -4.334245   -2.296702   -1.302343
H      3.345331   -0.269078   -1.913961
H      4.659681   -1.211327   -1.171122
H      5.243346    1.255438   -1.944629
H      4.095846    2.074210    0.770127
H      2.217058    1.722907   -1.634702
H     -0.733914    0.399214   -1.797617
H      0.038377   -0.322802    0.952167
H      1.763179    0.585846    1.065005
H     -5.703461   -4.513647    0.249500
H     -4.251269    3.693609    2.904005
H     -1.101538    4.912534   -0.466368
H      0.509175   -4.541511    1.172673
H      6.509100    0.039756   -0.450990
H      4.023241    3.976791   -0.140047
H      1.729439    2.474937    1.053769
