38

C     -4.291869    1.591735   -2.260820
C      3.403400    1.377802   -0.146229
C      1.723311   -0.814487    0.169518
C     -2.226225    0.883635    0.386087
C      5.167546   -0.084113   -0.889667
C      4.697184   -2.378256   -0.985227
C      0.166700    2.224039    1.016835
C      3.860561    0.114271   -0.435453
C      3.013367   -0.956801   -0.272387
C      2.114828    1.541060    0.297507
C      1.257102    0.445104    0.461231
C     -1.108451    0.217659    1.220037
C     -2.747430   -0.191260   -0.541885
C     -1.415798   -1.162235    1.071048
C     -1.713123   -1.313846   -0.424079
N      5.532958   -1.337196   -1.147815
N      3.437533   -2.206730   -0.549583
N      1.371908    2.607496    0.660080
N      0.080833    0.859432    0.895787
O     -2.737488   -1.323741    1.620623
O     -2.277490   -2.538849   -0.702370
S     -2.967427    0.352870   -2.225684
H     -4.911899    1.530338   -3.179697
H     -3.821749    2.579940   -2.146498
H     -4.990823    1.397988   -1.413307
H      4.025835    2.235398   -0.258200
H      1.050380   -1.646803    0.299292
H     -3.021832    1.300522    0.998587
H     -1.833025    1.689359   -0.250494
H      5.769431    0.782689   -0.994045
H      5.107655   -3.360829   -1.228511
H     -0.595941    2.924913    1.345774
H     -1.372716    0.521541    2.285910
H     -3.679218   -0.605381   -0.069892
H     -0.895622   -1.971376    1.536829
H     -0.881616   -1.033339   -1.065444
H     -2.678602   -1.019391    2.541110
H     -1.612188   -3.233157   -0.464936
