56

C     -2.871227    0.678792    1.591342
C     -6.054962   -0.876302   -1.203242
C      3.871164   -4.220929    0.286144
C     -0.321902    5.059729   -0.155110
C      2.647492   -4.815913    0.526360
C     -1.583604    4.567784    0.083957
C      3.946553   -2.845354    0.134590
C      0.748911    4.199680   -0.195560
C      1.491426   -4.070591    0.619758
C     -1.794766    3.211510    0.286216
C     -1.516106   -1.842527   -0.614437
C      3.805393    2.616337   -0.444549
C      2.806897   -2.101601    0.225741
C      0.501804    2.857620    0.010035
C      2.712488    1.630091   -0.170113
C      1.570486   -2.695549    0.467714
C     -0.758456    2.331494    0.254146
C     -0.821962   -1.971133    0.728093
C      1.355178    1.781406    0.014252
C      2.561681   -0.754239    0.123930
C      3.317218    0.380211   -0.117117
C      1.202381   -0.581541    0.306551
C      0.617856    0.684027    0.251102
C      4.732799    0.548400   -0.345617
C     -3.742888   -0.943949   -0.381068
C     -1.780844    0.075653    0.710250
C     -2.316893   -0.561588   -0.524922
N      4.969464    1.821309   -0.525877
N      0.614244   -1.769470    0.513271
N     -0.704328    0.993236    0.408278
O      5.780538   -0.346388   -0.398305
O     -4.071664   -1.648363    0.598037
O     -2.160417    0.216686   -1.670833
O     -4.699872   -0.543805   -1.292618
O     -1.243761   -0.948218    1.517408
H     -2.525545    1.468545    2.251489
H     -3.764943    0.873125    0.980190
H     -3.245993   -0.126696    2.318950
H     -6.546445   -0.179063   -0.511036
H     -6.528966   -0.749037   -2.200585
H     -6.214268   -1.934254   -0.890728
H      4.760992   -4.812505    0.216066
H     -0.139164    6.124180   -0.316074
H      2.604631   -5.898071    0.643186
H     -2.422731    5.280361    0.110588
H      4.912421   -2.453693   -0.047016
H      1.766856    4.509847   -0.377659
H      0.529091   -4.518186    0.806566
H     -2.789220    2.875712    0.452087
H     -0.795903   -1.802240   -1.458160
H     -2.180007   -2.727204   -0.805301
H      3.532584    3.146790   -1.372364
H      3.832165    3.322837    0.405889
H     -1.040422   -2.957104    1.146290
H      6.479249   -0.221204   -1.119335
H     -3.034705    0.661356   -1.850851
