59

C     -0.854409    3.894160   -0.183366
C     -3.670959   -1.039437   -0.468704
C     -3.158796   -2.033625    1.675545
C      0.451341    1.974475   -1.347792
C     -2.475798    2.110133    0.170212
C     -2.638537    0.963262    1.146812
C     -1.153345   -1.776323   -1.469956
C     -0.647498   -0.370027   -1.376142
C      4.520758    0.365918    0.100049
C      1.151423    1.792178    0.956259
C      2.778564   -2.787277   -0.219367
C     -1.051633    2.552827    0.429379
C      4.147581   -0.949533   -0.093556
C      2.277030    0.881715    0.582820
C      2.843591   -1.355583    0.048964
C      3.566763    1.311457    0.447278
C     -1.711274   -0.177181    0.897263
C     -1.609979   -2.353312   -0.167963
C      1.895096   -0.434906    0.390297
C      4.944412   -2.137960   -0.461119
C     -2.530234   -1.342530    0.454354
C     -0.050784    1.520526    0.031841
C     -0.504628    0.116424    0.074870
N      4.149074   -3.123223   -0.518148
O      3.870309    2.638042    0.654931
O     -2.281771   -3.551938   -0.445178
O      6.322912   -2.185106   -0.704850
O      0.558079   -0.697538    0.566380
H     -1.011788    3.860656   -1.268899
H      0.078109    4.410279    0.124852
H     -1.683593    4.551313    0.215523
H     -3.916853   -2.022300   -0.976653
H     -3.465113   -0.346270   -1.275543
H     -4.607284   -0.750311    0.027856
H     -2.447415   -2.016755    2.519281
H     -3.395999   -3.066695    1.371080
H     -4.129153   -1.542187    1.905883
H      0.842329    3.019974   -1.154914
H     -0.357911    2.103398   -2.069912
H      1.319424    1.408067   -1.684502
H     -2.676840    1.871450   -0.865586
H     -3.128424    2.936728    0.564197
H     -3.711473    0.695177    1.138317
H     -2.485638    1.440008    2.163127
H     -0.411146   -2.490854   -1.903210
H     -2.029892   -1.823700   -2.171383
H      0.360157   -0.375791   -1.848537
H     -1.264875    0.286893   -1.984989
H      5.559733    0.695478   -0.012402
H      1.468055    2.826024    0.790249
H      0.848360    1.662778    2.011900
H      2.113003   -2.959336   -1.088493
H      2.418252   -3.339926    0.691653
H     -0.996006    2.692399    1.549137
H     -1.352874   -0.476509    1.929599
H     -0.804517   -2.580150    0.535549
H      4.846273    2.915622    0.543045
H     -1.859261   -4.314933    0.016516
H      6.745073   -3.076142   -0.963855
