30

C     -1.431659   -0.136636    1.144095
C     -2.945867   -0.131279    0.880055
C      2.214829    2.064228    1.246105
C      1.163080   -1.697205   -0.981079
C     -0.958034   -0.805087   -0.129584
C     -2.938039    0.548726   -0.496043
C      2.588128   -0.230456   -0.251012
C     -1.731194   -0.060738   -1.184015
C      3.647109    0.575470    0.112491
C      1.328180    0.149085    0.160018
N      4.950375    0.217128   -0.291113
N      3.445387    1.700058    0.848765
N      1.189886    1.274878    0.888401
N      2.469529   -1.377523   -0.957767
N      0.451563   -0.778741   -0.305186
O     -4.111516    0.350869   -1.173353
O     -2.168709   -0.878327   -2.215253
H     -1.184241   -0.685883    2.050545
H     -1.147854    0.939708    1.180448
H     -3.271671   -1.182436    0.785619
H     -3.479966    0.451511    1.628096
H      2.067256    2.974038    1.839624
H      0.805736   -2.597363   -1.499674
H     -1.376561   -1.850432   -0.093354
H     -2.696481    1.611359   -0.294352
H     -1.081884    0.730513   -1.611703
H      5.532844   -0.368229    0.338556
H      5.317253    0.537404   -1.207042
H     -4.002655    0.323797   -2.156646
H     -2.644822   -1.668436   -1.869347
