34

C      5.183876    0.736736   -0.541009
C      0.905941    0.851855   -0.259729
C     -3.587513    2.312954    0.337491
C     -1.529302   -1.606838   -0.031711
C      0.180988    0.027311    0.786126
C      2.345561    0.577648    0.123723
C     -3.273136   -0.336263   -0.190324
C      1.101065   -1.090541    1.181347
C      2.286769   -0.952302    0.229685
C     -4.485763    0.300158   -0.357439
C     -2.179426    0.407929    0.263466
N     -5.628815   -0.418058   -0.818016
N     -4.638348    1.610162   -0.095699
N     -2.399363    1.704861    0.504791
N     -2.833714   -1.572350   -0.360935
N     -1.108696   -0.405045    0.353308
O      1.613719   -0.898702    2.465671
O      3.439916   -1.485065    0.740654
S      3.514820    1.121619   -1.121232
H      5.236231   -0.362278   -0.402022
H      5.428728    1.223368    0.411974
H      5.949701    1.034323   -1.292654
H      0.653480    1.928142   -0.186971
H      0.735584    0.441935   -1.278046
H     -3.617987    3.373871    0.573530
H     -0.940604   -2.500079   -0.084921
H      0.065999    0.707500    1.676649
H      2.509271    0.993288    1.121847
H      0.655783   -2.082089    1.129559
H      2.003952   -1.316530   -0.769106
H     -5.525586   -0.974583   -1.686138
H     -6.514517   -0.367910   -0.286731
H      0.874391   -0.611208    3.040599
H      3.576995   -2.373819    0.293132
