41

C     -5.356460    1.515151   -0.813636
C     -4.127968    2.146104   -0.787415
C     -5.549221    0.440650    0.014663
C     -3.124242    1.705972    0.049635
C     -4.531038   -0.002923    0.861224
C     -0.265301   -0.636697   -0.074477
C      2.823547    1.941323   -2.318379
C      3.019070   -0.870613    1.067754
C     -3.299655    0.625809    0.890686
C      0.979595   -1.526203   -0.190255
C     -1.043992   -1.177030    1.106541
C      3.755617    0.794263   -0.099339
C      0.789283   -2.575457    0.888652
C      0.110537   -1.717143    1.963376
C      4.454000    1.864944   -0.630342
C      2.602735    0.293359   -0.662520
N      5.635197    2.347056   -0.020910
N      3.949186    2.419762   -1.756669
N      2.148540    0.897595   -1.795245
N      3.997282    0.047118    0.986245
N      2.152335   -0.737076    0.065486
O     -0.193320   -3.465773    0.450980
O     -0.336111   -2.465231    3.024679
S     -2.006022    0.047416    1.975905
H     -6.124853    1.888198   -1.484586
H     -3.985265    3.005945   -1.456692
H     -6.495285   -0.061122    0.007008
H     -2.174317    2.221840    0.047413
H     -4.684656   -0.851229    1.513531
H     -0.858088   -0.776879   -1.019850
H      0.049365    0.403171    0.060561
H      2.475688    2.444267   -3.232807
H      2.973857   -1.610679    1.864436
H      1.028695   -2.017981   -1.183207
H     -1.648514   -2.033383    0.705512
H      1.697048   -3.058939    1.222224
H      0.727730   -0.849730    2.225801
H      6.514120    2.429857   -0.557609
H      5.616578    2.619633    0.976328
H     -0.400903   -3.390916   -0.497804
H     -1.294796   -2.274430    3.148782
