31

C     -1.205789   -0.568756   -1.149253
C      2.825000   -1.907999   -0.697404
C      0.933623    1.783019    0.788489
C     -0.944086    0.494956   -0.116077
C     -2.717759   -0.656909   -1.085209
C      2.628993    0.500938    0.430310
C     -1.786069    0.040692    1.036981
C     -3.077391   -0.375434    0.347609
C      3.887803   -0.090393    0.337640
C      1.489545   -0.113480   -0.038242
N      5.054957    0.557376    0.826478
N      3.933147   -1.306975   -0.240049
N      1.598192   -1.328477   -0.605539
N      2.254624    1.673446    0.936771
N      0.429628    0.690304    0.186767
O     -3.181515   -1.893178   -1.518312
O     -2.054820    1.082321    1.940179
O     -3.978011    0.682542    0.464195
H     -0.819627   -1.562537   -0.805457
H     -0.829753   -0.308555   -2.147883
H      2.937467   -2.886158   -1.150331
H      0.372931    2.663070    1.126074
H     -1.388090    1.441260   -0.516218
H     -3.147844    0.176153   -1.692984
H     -1.306268   -0.800012    1.556065
H     -3.541189   -1.249090    0.856590
H      5.969520    0.567788    0.323449
H      4.987576    1.051545    1.745617
H     -3.526311   -1.754142   -2.449564
H     -2.107621    1.941218    1.419903
H     -3.690862    1.455466   -0.110596
