34

C     -3.517158   -1.530217    1.068638
C      2.201032   -1.052975   -0.775910
C      3.508540   -1.470381   -0.813962
C     -1.194216   -0.931510    0.352582
C      0.889249    1.646678    1.171760
C     -2.689347   -0.655290    0.192154
C      1.826356    0.013123    0.027332
C     -0.584546    0.284588   -0.319465
C      2.795760    0.640281    0.783197
C     -2.761146    0.809568    0.557117
C     -1.609180    1.371219   -0.283164
C      4.112478    0.205915    0.733144
N      5.009587    0.801026    1.445033
N      4.416736   -0.830340   -0.061877
N      2.204153    1.633780    1.474050
N      0.674849    0.654313    0.289933
O     -3.978442    1.325971    0.161438
O     -2.161627    1.623848   -1.549222
H     -3.100424   -2.575021    1.000603
H     -4.546380   -1.590241    0.671207
H     -3.465740   -1.224732    2.126154
H      1.423760   -1.523407   -1.354802
H      3.753273   -2.307051   -1.456087
H     -0.902329   -0.968063    1.407054
H     -0.996608   -1.864070   -0.203516
H      0.154331    2.337717    1.575307
H     -2.925642   -0.766701   -0.866300
H     -0.377039   -0.020891   -1.386229
H     -2.514043    1.011640    1.608964
H     -1.262380    2.325567    0.107729
H      5.996253    0.458993    1.393665
H      5.405348   -1.156045   -0.099100
H     -4.037433    2.272202    0.398056
H     -1.748025    1.050506   -2.242299
