32

C     -1.777097    0.790520   -0.891292
C      3.292439   -2.007214   -0.643389
C      0.913351    1.682448   -0.020504
C     -3.091442    0.344379   -0.284795
C     -0.729083   -0.160929   -0.368059
C      2.795150    0.601107   -0.187868
C     -2.755933   -0.875495    0.525269
C     -1.332536   -0.537140    0.990187
C      4.104421    0.124878   -0.255403
C      1.723946   -0.267915   -0.355507
N     -3.605159    1.377348    0.607744
N      5.203841    0.999251   -0.086449
N      4.318748   -1.173413   -0.482564
N      2.022639   -1.558707   -0.580259
N      2.257258    1.811715    0.019628
N      0.568969    0.413672   -0.249620
O     -2.625255   -1.977550   -0.319295
O     -0.700854   -1.625818    1.549860
H     -1.566750    1.840010   -0.605193
H     -1.847214    0.742966   -1.999600
H      3.487500   -3.045689   -0.824801
H      0.225538    2.495434    0.114671
H     -3.836666    0.078624   -1.062757
H     -0.756280   -1.089433   -0.973582
H     -3.428982   -1.054562    1.364653
H     -1.411143    0.336058    1.651258
H     -3.979011    0.959450    1.496617
H     -4.360356    1.948598    0.132566
H      5.153262    1.758851    0.613856
H      6.054250    0.892026   -0.649417
H     -2.963006   -1.745657   -1.200809
H     -1.354546   -2.077814    2.145735
