32

C     -1.501955    0.248298   -0.936446
C      2.986160    0.240851   -2.585453
C      0.968391   -0.250666    1.412241
C     -2.537205    0.636685    0.074397
C     -0.698910   -0.867911   -0.316628
C      2.686142    0.255716    0.105081
C     -2.676383   -0.511869    1.033948
C     -1.539714   -1.470139    0.746646
C      3.892531    0.626598   -0.449310
C      1.607432   -0.130231   -0.693857
N      4.954282    1.009386    0.406205
N     -3.575453    3.898652    0.403582
N      4.011151    0.609448   -1.781767
N      1.818247   -0.117090   -2.022245
N      2.246339    0.165202    1.372701
N     -2.201181    1.886527    0.756313
N     -2.839095    2.919558    0.582938
N      0.601116   -0.424428    0.130547
O     -3.925088   -1.130101    0.916845
O     -2.094443   -2.682089    0.280353
H     -2.042087   -0.107850   -1.851551
H     -0.880213    1.102947   -1.241371
H      3.137500    0.245038   -3.664163
H      0.396546   -0.399133    2.326349
H     -3.539180    0.797733   -0.398965
H     -0.509245   -1.615045   -1.135264
H     -2.635533   -0.097044    2.062802
H     -1.043198   -1.695460    1.686453
H      4.785758    1.765476    1.096536
H      5.879896    0.544060    0.343932
H     -3.886368   -2.008873    0.487945
H     -1.846240   -3.444244    0.851206
