52

C      5.499863   -2.142210   -3.094203
C     -5.661469    0.657464   -1.780299
C      3.602583   -0.592362   -1.563389
C     -3.592689    0.176019    0.197221
C      3.151586    0.895094    0.189125
C     -3.054705   -0.166855    2.468433
C      0.673615   -1.200968    0.844311
C     -0.743151    0.903319   -1.333367
C      6.623113    1.581878    1.122897
C     -6.284034    0.556162    3.895937
C      2.673747    0.137628   -0.855697
C     -2.641372   -0.050928    1.162000
C      0.443408   -0.983287   -0.608931
C     -0.970224   -0.395703   -0.636359
C      4.949937   -0.591929   -1.270997
C     -4.930717    0.284123    0.539798
C      4.517421    0.906365    0.499518
C     -4.377986   -0.064677    2.844043
C      1.258913    0.077004   -1.254970
C     -1.229181   -0.160903    0.812482
C      5.417909    0.167461   -0.225066
C     -5.330224    0.162930    1.874884
O      5.866264   -1.329973   -1.989424
O     -5.904628    0.512392   -0.419419
O      0.578929    1.250827   -1.079572
O     -0.601602   -1.262698    1.394998
O      5.239646    1.570334    1.482217
O     -5.056240   -0.141770    4.076902
O      6.685033    0.397610    0.336015
O     -6.557257    0.220132    2.524092
H      6.368755   -2.810668   -3.352052
H      4.696949   -2.824084   -2.752843
H      5.186532   -1.517462   -3.962628
H     -4.889715   -0.053053   -2.146366
H     -5.361553    1.716004   -2.048536
H     -6.642551    0.491986   -2.316185
H      3.243984   -1.198272   -2.396148
H     -3.353894    0.280992   -0.854181
H      2.489018    1.493465    0.769092
H     -2.321462   -0.342856    3.234072
H      1.176222   -0.351950    1.323069
H      1.251991   -2.134399    1.053742
H     -1.401164    1.678709   -0.882940
H     -0.923911    0.835171   -2.425905
H      6.861682    2.476125    0.516469
H      7.295939    1.527970    1.985900
H     -6.175085    1.649002    4.015911
H     -7.050437    0.112546    4.562554
H      0.463695   -1.944741   -1.187374
H     -1.684844   -1.059359   -1.126363
H      1.182032   -0.136126   -2.380316
H     -0.658668    0.738521    1.163375
