33

C      3.458734    1.661821    0.287208
C     -1.328240   -0.902616    0.813290
C     -1.251880    0.115597   -1.362763
C      1.380602    0.303697   -0.141974
C     -2.647633    1.190550    1.231713
C      2.770697    0.366207    0.003324
C     -2.601003   -0.163155    0.588060
C     -0.636818   -0.972539   -0.551546
C     -2.718353    0.038770   -0.917551
C      3.523637   -0.782312   -0.116162
C      1.545879   -1.983792   -0.509370
N      2.895985   -1.948421   -0.372498
N      0.784213   -0.874245   -0.397260
O     -1.657404    2.041011    0.781572
O     -3.264071   -1.134707   -1.431425
O      4.898335   -0.699146    0.031106
O      0.967557   -3.072109   -0.747891
H      2.750602    2.435833    0.622205
H      4.247262    1.473536    1.054524
H      3.968913    1.989170   -0.640248
H     -0.665249   -0.463706    1.576110
H     -1.538472   -1.956745    1.100743
H     -1.260136   -0.118210   -2.452520
H     -0.837078    1.110408   -1.206735
H      0.834087    1.218561   -0.041663
H     -2.599544    1.140754    2.337756
H     -3.624382    1.652403    0.957048
H     -3.471295   -0.741221    0.965251
H     -0.888558   -1.945753   -1.058179
H     -3.273646    0.940572   -1.182055
H     -1.972493    2.964329    0.657985
H     -3.062248   -1.908496   -0.831018
H      5.272000   -0.976044    0.952962
