36

C     -3.713155   -1.681195   -1.184432
C      1.120893   -1.187781    1.523714
C      0.745241    1.501163   -1.002975
C     -1.710746   -0.412707   -0.449370
C      3.509427   -0.921551   -0.393984
C     -3.072406   -0.613029   -0.357982
C      1.128253   -0.458887    0.228418
C      2.498531    0.155131   -0.092644
C      0.286089    0.804623    0.241103
C      2.149010    0.976936   -1.303334
C     -3.855000    0.157134    0.484874
C     -1.898031    1.274842    1.094333
N     -3.230186    1.097959    1.200786
N     -1.119233    0.537219    0.281280
O      4.712619   -0.309956   -0.672852
O      2.972811    2.055425   -1.502796
O     -5.206198   -0.094130    0.528702
O     -1.352020    2.180936    1.794878
H     -3.482427   -1.502936   -2.257678
H     -4.810572   -1.662048   -1.025459
H     -3.364428   -2.684558   -0.840357
H      2.074173   -1.114148    2.079920
H      0.268400   -0.842950    2.144951
H      0.924877   -2.270555    1.305129
H      0.793086    2.601481   -0.752701
H      0.079337    1.368792   -1.862162
H     -1.091954   -1.009629   -1.105071
H      3.643148   -1.502030    0.553648
H      3.175763   -1.639430   -1.150020
H      0.893971   -1.106330   -0.648595
H      2.871508    0.766885    0.729254
H      0.597654    1.378226    1.135464
H      2.068263    0.305676   -2.182927
H      4.745584    0.560198   -0.207993
H      2.480896    2.714326   -2.060401
H     -5.833179    0.576899    0.084992
