38

C     -4.823447    0.402669   -1.353481
C     -3.975970   -1.635778   -0.309298
C     -5.066153    0.167215    1.054978
C      4.374417    1.199131    0.269852
C      5.755305    1.340343    0.215817
C      4.580894   -1.150133    0.033888
C      1.477907    0.846537    0.377721
C     -0.626280    0.884832   -0.808558
C      3.776574   -0.058745    0.178191
C      0.106600    0.321736    0.394420
C      2.314355   -0.167784    0.239297
C      6.526730    0.213514    0.069719
C      5.966750   -1.028834   -0.022300
C      1.565932   -1.402981    0.157290
C     -2.834370    0.483840    0.080734
C     -4.172553   -0.152265   -0.103488
Cl     8.285807    0.379757   -0.000414
Cl     6.978878   -2.429301   -0.206489
O      1.962235   -2.601226    0.022748
O     -2.637151    1.130479    1.131103
O     -1.891994    0.322946   -0.916276
O      0.226724   -1.062414    0.255621
H     -5.919133    0.339099   -1.211724
H     -4.478264   -0.070382   -2.270248
H     -4.552550    1.482734   -1.401019
H     -4.647001   -2.011354   -1.118201
H     -2.925587   -1.879064   -0.591699
H     -4.210124   -2.230049    0.599033
H     -4.426332    0.207762    1.965181
H     -5.908953   -0.525749    1.167346
H     -5.436856    1.212512    0.911666
H      3.784977    2.088659    0.384229
H      6.172291    2.336790    0.291200
H      4.157833   -2.127043   -0.039327
H      1.777601    1.873876    0.461769
H     -0.071501    0.709246   -1.732934
H     -0.768526    1.993909   -0.672172
H     -0.419064    0.595518    1.343249
