76

C     -2.598277    5.748678   -2.005755
C     -5.226562   -2.564118    1.448089
C      0.992536   -1.204750   -1.163091
C     -2.350159    4.256070   -1.811775
C     -3.403932    3.696399   -0.904581
C     -3.251179    2.213739   -0.645177
C     -2.951325   -4.393440    0.510035
C     -1.660420   -4.891029   -0.101717
C     -2.804397   -2.942207    0.973537
C     -1.947549    1.900469   -0.009527
C     -0.450852   -4.271632    0.582874
C     -3.906876   -0.738091    0.493850
C      3.984255   -1.099234   -0.233432
C      3.695711    0.476797    1.479522
C     -2.697003   -0.169172    1.208923
C      4.856852   -0.250700   -0.879547
C      4.579625    1.344255    0.830604
C      7.321666    3.799698   -1.367999
C      6.330142    3.094094   -0.432019
C      2.465403   -1.653808    1.655038
C     -4.037819   -2.210058    0.556240
C      3.379239   -0.751967    0.969699
C      5.170263    0.991777   -0.355771
C     -1.709474    0.444529    0.289325
C      1.017005   -1.563076    1.284496
C      0.262361   -3.376987   -0.328965
C      0.393783   -0.239553    1.543796
N      0.745661   -2.081004   -0.036280
O      8.459611    2.996035   -1.446478
O      0.457414   -3.837237   -1.509361
O      0.687941    0.221021    2.712304
O      6.065034    1.844016   -1.033269
O     -0.365720    0.323234    0.609329
H     -2.337748    6.043670   -3.033607
H     -1.936864    6.282519   -1.262123
H     -3.633730    5.952807   -1.731413
H     -4.926670   -2.678608    2.511210
H     -5.982086   -1.746726    1.421264
H     -5.739818   -3.471709    1.044979
H      1.699662   -1.686305   -1.892533
H      1.321691   -0.193391   -0.878794
H      0.057830   -1.061641   -1.782907
H     -1.330636    4.108960   -1.432870
H     -2.508878    3.792002   -2.828840
H     -4.389923    3.817389   -1.444721
H     -3.528645    4.279652    0.033537
H     -4.138695    1.910082   -0.060507
H     -3.368092    1.716830   -1.645514
H     -3.275400   -5.036907    1.350770
H     -3.734538   -4.459617   -0.271148
H     -1.655392   -4.735111   -1.198532
H     -1.615533   -5.984608    0.073747
H     -1.961928   -2.517452    0.395341
H     -2.646613   -2.984770    2.061731
H     -1.138706    2.228258   -0.699354
H     -1.834323    2.522568    0.901477
H      0.279491   -5.066872    0.900562
H     -0.824369   -3.798025    1.505535
H     -3.936458   -0.423702   -0.573280
H     -4.804559   -0.262934    0.951439
H      3.730088   -2.083033   -0.637899
H      3.290098    0.822604    2.391429
H     -2.217933   -1.025687    1.723816
H     -3.007129    0.510058    2.047747
H      5.316162   -0.535836   -1.810236
H      4.801922    2.307769    1.269394
H      6.868001    3.904049   -2.375270
H      7.539293    4.825151   -1.021818
H      6.722369    3.019032    0.581555
H      5.384456    3.693835   -0.385867
H      2.831474   -2.712593    1.525420
H      2.491521   -1.526380    2.780970
H     -4.300165   -2.606445   -0.468949
H     -1.839285   -0.100633   -0.696295
H      0.487246   -2.268411    1.991286
H      8.289852    2.117421   -1.049054
