69

C      8.302595   -2.737146    0.382460
C     -1.833693   -1.502597   -3.058545
C      6.336819    1.448776   -1.410338
C     -0.568570    0.677681    1.235601
C      7.665809    1.514258   -1.747877
C     -1.963704    0.716468    1.206920
C      6.621155   -0.660727   -0.346262
C     -0.505672   -0.415445   -0.865275
C     -7.638576   -1.182106    2.382670
C      3.337026   -0.747918    1.473881
C      2.752301   -0.037604   -1.923173
C      5.801662    0.362666   -0.707434
C      0.153317    0.110393    0.196087
C      3.729869   -0.829431    0.039601
C      2.358458   -0.726639   -0.646740
C      8.502070    0.465772   -1.377213
C     -2.606021    0.178313    0.122461
C      7.960066   -0.595346   -0.685995
C     -1.883720   -0.397967   -0.933910
C     -6.820626    0.050994    2.059737
C     -7.722064    0.969661    1.233285
C     -7.030967    1.308902   -0.083999
C     -5.655831    1.821218    0.276572
C      4.357886    0.444909   -0.420543
C      1.623971    0.117753    0.329444
C     -4.899445    0.698352    0.952885
O     -8.069723   -1.798167    1.209013
O      9.850218    0.472495   -1.687805
O     -7.899172    2.165239    1.930102
O     -6.888904    0.139142   -0.810162
O     -5.802059    2.921426    1.143336
O      8.789654   -1.621224   -0.325749
O     -2.594269   -0.926060   -2.003913
O      3.687568    0.883062   -1.529877
O      2.044032   -0.322903    1.558842
O     -3.963100    0.191440    0.046601
O     -5.726904   -0.369035    1.307238
H      9.184210   -3.351800    0.677362
H      7.783377   -2.403193    1.316435
H      7.552043   -3.310135   -0.200477
H     -2.470803   -1.824383   -3.901641
H     -1.167088   -0.690374   -3.440434
H     -1.199723   -2.329621   -2.676091
H      5.689147    2.281228   -1.708445
H     -0.058875    1.101246    2.089493
H      8.069301    2.347584   -2.285582
H     -2.450167    1.176543    2.056936
H      6.201777   -1.496237    0.198128
H      0.072882   -0.860491   -1.670669
H     -7.049970   -1.907837    3.000062
H     -8.541820   -0.910699    2.962979
H      4.015702    0.001531    1.962939
H      3.460340   -1.694263    2.037203
H      3.280975   -0.801079   -2.542060
H      1.910762    0.424620   -2.445860
H      4.248050   -1.752041   -0.254365
H      1.922652   -1.730221   -0.801704
H     -6.529126    0.522391    3.019521
H     -8.722038    0.531352    1.069062
H     -7.614622    2.082347   -0.641518
H     -5.073789    2.168783   -0.584236
H      4.228450    1.234223    0.375341
H      1.997976    1.160291    0.209394
H     -4.426076    1.135230    1.854760
H     -9.042599   -1.600027    1.036582
H     10.415236   -0.298730   -1.403741
H     -8.222337    2.876798    1.309708
H     -5.976055   -0.047681   -1.112949
H     -5.289249    2.797450    1.971937
