43

C     -1.757995   -0.231030   -2.269108
C     -0.930818   -2.143285   -0.958368
C     -3.195460   -1.673150    1.484566
C      1.356425   -0.349184   -1.413234
C      1.563695    0.081556    0.882154
C      2.722666   -0.533282   -1.537177
C      2.923710   -0.093665    0.792805
C     -1.241995    1.525625   -0.011771
C     -0.136772    3.433123    2.874018
C      0.478798    3.095733    0.801783
C      0.720783   -0.043360   -0.245381
C      3.509219   -0.401170   -0.414429
C     -1.591741   -0.758396   -0.850432
C     -0.706088    0.141243   -0.030521
C      4.992477   -0.594726   -0.515020
F      5.638808    0.536429   -0.947425
F      5.262892   -1.650566   -1.370727
F      5.524289   -0.918407    0.715034
N      0.761163    3.747092    1.943026
N     -1.002751    2.555857    2.277564
N     -0.620562    2.360025    1.025477
O     -0.917424   -0.331958    1.312227
O     -4.070249    0.209046   -0.175803
O     -3.871383   -2.038229   -1.022415
S     -3.161151   -0.999625   -0.140753
H     -1.243047    0.717487   -2.457353
H     -1.525731   -1.032538   -3.012309
H     -2.861094   -0.008242   -2.460749
H     -0.002079   -2.191155   -0.323323
H     -1.579744   -2.955511   -0.607556
H     -0.685714   -2.384597   -2.030146
H     -2.947499   -2.782236    1.470453
H     -2.684868   -1.127181    2.268236
H     -4.297696   -1.664291    1.783188
H      0.759848   -0.469227   -2.294641
H      1.137866    0.311490    1.847720
H      3.116851   -0.778291   -2.496876
H      3.575067   -0.006398    1.646111
H     -2.340276    1.573941    0.205642
H     -1.144790    2.072626   -1.002291
H     -0.199805    3.769892    3.889492
H      1.053565    3.168378   -0.106619
H     -0.381391   -1.139843    1.474933
