30

C     -0.766276   -1.141295   -1.147917
C      2.996389    0.829872    0.981982
C     -1.829825   -1.286324   -0.092602
C      1.664540    0.855816    0.597025
C     -0.958569    0.812358    0.240560
C     -3.242447    0.366900    1.176993
C     -0.122432    0.165518   -0.877657
C      3.917215    0.079269    0.282086
C      2.148563   -0.578821   -1.142642
C     -2.334209    0.135087    0.013780
F     -2.830801    0.531409   -1.190048
N      5.167063    0.009438    0.583654
N      3.438371   -0.603661   -0.769420
N      1.240532    0.148698   -0.468254
O     -3.620190    1.719594    1.135642
O      1.813825   -1.350476   -2.268662
H     -0.084327   -2.013934   -1.173943
H     -1.337233   -1.057073   -2.122990
H      3.341634    1.404453    1.848236
H     -2.626300   -1.999228   -0.370696
H     -1.309701   -1.580497    0.848218
H      1.027038    1.479216    1.205992
H     -1.014490    1.889573    0.171243
H     -0.660522    0.448716    1.243122
H     -4.171813   -0.221644    1.037325
H     -2.760631    0.099006    2.117071
H     -0.268089    0.877237   -1.750308
H      5.607637    0.499283    1.368447
H     -4.493156    1.825980    0.715355
H      2.068203   -2.344468   -2.191590
