30

C     -0.643808   -0.849852    1.274397
C      3.225289    0.663295   -1.148566
C     -2.137150   -0.771223    0.948985
C      1.867123    0.808401   -0.832132
C     -0.937177    0.422233   -0.677531
C     -3.419882    0.195882   -0.971349
C     -0.036686    0.304043    0.557468
C      4.039423   -0.141955   -0.378191
C      2.135198   -0.605523    0.957025
C     -2.285232    0.386794    0.000382
F     -2.459386    1.577675    0.662851
N      5.307589   -0.302879   -0.639687
N      3.461014   -0.760940    0.666529
N      1.335448    0.168482    0.223003
O     -4.586442    0.069080   -0.186716
O      1.684223   -1.307597    2.064919
H     -0.564088   -0.763171    2.395748
H     -0.285593   -1.840029    0.925167
H      3.675673    1.164394   -1.987600
H     -2.739006   -0.532954    1.850027
H     -2.494268   -1.725678    0.486079
H      1.258923    1.441785   -1.450166
H     -0.779439   -0.451223   -1.348486
H     -0.765542    1.383778   -1.209538
H     -3.507331    1.110984   -1.568835
H     -3.282027   -0.676874   -1.622198
H     -0.248311    1.226076    1.159898
H      5.738988    0.177637   -1.444104
H     -4.513270    0.602190    0.647342
H      1.955747   -0.972833    2.986307
