69

C      8.460311    1.565728   -2.570640
C     -1.637963   -2.270955    1.603173
C      5.719149   -2.210152   -0.882818
C     -0.329259    2.181644   -0.082733
C      6.842795   -2.787358   -1.435042
C     -1.702955    2.186213   -0.086272
C      6.527174   -0.087264   -1.445590
C     -0.337772   -0.011771    0.748854
C     -7.343365    0.180954    3.207975
C      3.786043    1.909038    0.724670
C      2.438880   -0.433867   -1.520428
C      5.531750   -0.839544   -0.873809
C      0.371262    1.089997    0.332101
C      3.967066    1.088301   -0.534923
C      2.498554    0.950513   -0.978822
C      7.843635   -2.007448   -2.011528
C     -2.460117    1.073498    0.334542
C      7.660582   -0.647883   -2.004272
C     -1.738702   -0.012163    0.747082
C     -6.649418   -0.093629    1.900608
C     -7.654066   -0.109109    0.769786
C     -6.924885   -0.625316   -0.456287
C     -5.645542    0.105285   -0.684404
C      4.302701   -0.334223   -0.252907
C      1.843335    1.012463    0.364744
C     -4.849279    0.324796    0.612501
O     -8.004586    1.386941    3.221448
O      8.978836   -2.595775   -2.568996
O     -8.719039   -0.968246    1.045030
O     -7.777635   -0.375840   -1.543079
O     -4.813893   -0.536543   -1.571957
O      8.657066    0.163214   -2.580740
O     -2.374975   -1.154177    1.179000
O      3.259616   -1.147952   -0.663680
O      2.434649    2.152037    0.896264
O     -3.793910    1.116056    0.316758
O     -5.699924    0.867255    1.591649
H      7.577034    1.761006   -3.247086
H      8.269717    1.939149   -1.542465
H      9.375230    2.027751   -3.015820
H     -1.021140   -1.959369    2.482837
H     -2.252271   -3.123256    1.890099
H     -0.910432   -2.628510    0.822695
H      4.982027   -2.887365   -0.451328
H      0.243337    3.045529   -0.409182
H      7.014625   -3.863335   -1.454795
H     -2.263092    3.040960   -0.411514
H      6.443441    0.967622   -1.467090
H      0.174448   -0.901421    1.086779
H     -8.076191   -0.619595    3.433603
H     -6.565786    0.095808    4.021263
H      4.278083    1.471234    1.604555
H      4.277950    2.909213    0.562269
H      1.393375   -0.796413   -1.443417
H      2.727366   -0.511119   -2.586186
H      4.558155    1.601519   -1.286202
H      2.211414    1.739872   -1.665725
H     -6.151180   -1.080522    1.889766
H     -7.996346    0.911711    0.552109
H     -6.773320   -1.730028   -0.411214
H     -5.878706    1.113316   -1.083694
H      4.405469   -0.447240    0.867776
H      2.191209    0.153968    0.963174
H     -4.547038   -0.673587    0.975373
H     -8.174813    1.613789    4.181619
H      9.663704   -1.979526   -2.968918
H     -9.356179   -0.457536    1.610241
H     -7.232973   -0.120050   -2.305943
H     -5.253237   -0.718289   -2.435849
