52

C      4.374655    0.350454   -0.666286
C      3.379918   -1.739373    0.058298
C     -3.790322    0.173926    1.610191
C     -3.851728   -1.353642   -0.385269
C     -2.479603   -1.836303   -0.880020
C      1.803196    1.188276   -1.232679
C     -0.048367   -0.139708   -1.861789
C     -1.500361    1.427887    0.318029
C      0.630218    2.515621    0.703407
C      0.363126   -2.246455   -0.667365
C      3.260961   -0.245445    0.167163
C     -3.633360    0.067575    0.140478
C      0.312178    1.257028   -1.432348
C     -2.272826    0.402733   -0.381093
C     -1.571168   -0.938762   -0.129848
C      1.942809    0.299641   -0.218966
C      0.610173   -0.314411    1.768652
C     -0.055177    1.365389    0.042035
C     -0.150409   -0.882485   -0.541630
C      0.598993    0.017639    0.381253
O      1.985348    2.588211    0.534749
O      0.616463   -2.805194   -1.723922
O      0.192387   -1.408333    2.282661
O      1.111385    0.600914    2.691059
H      5.338694   -0.057682   -0.317422
H      4.417113    1.451325   -0.598377
H      4.258341    0.065672   -1.742302
H      4.472501   -1.958280    0.260672
H      2.838600   -2.297952    0.825539
H      3.234175   -2.116482   -0.982271
H     -2.916084   -0.068138    2.211269
H     -4.624087   -0.513906    1.921044
H     -4.142281    1.191235    1.880490
H     -4.100153   -2.007804    0.477029
H     -4.593277   -1.376600   -1.190707
H     -2.347987   -2.920029   -0.620430
H     -2.482869   -1.682852   -1.968409
H      2.585905    1.713573   -1.761029
H     -0.903708   -0.234593   -2.510628
H      0.801858   -0.646915   -2.410647
H     -1.643553    1.313151    1.414207
H     -1.857279    2.435864    0.065284
H      0.310880    2.588705    1.763118
H      0.201557    3.444197    0.221657
H      0.539249   -2.822885    0.236208
H      3.525390    0.002992    1.227847
H     -4.356526    0.767822   -0.350416
H     -0.022705    2.055173   -2.049108
H     -2.374703    0.648789   -1.436801
H     -1.710190   -1.132697    0.957108
H      2.310636    3.478287    0.273117
H      1.412010    0.334849    3.627201
