52

C     -4.451412   -0.478280    0.494564
C     -3.552113    0.274869   -1.629467
C      4.123891   -0.884831    0.139474
C      3.665172    1.274490   -1.046078
C      2.248367    1.806329   -1.332554
C     -1.976517    0.113690    1.543227
C     -0.383014    1.680005    0.729229
C      1.534822   -0.672589    1.206189
C     -0.558896   -1.898648    1.744344
C     -0.588284    1.553851   -1.737131
C     -3.262995   -0.603420   -0.458464
C      3.563354    0.498250    0.250460
C     -0.573253    0.595016    1.733325
C      2.136595    0.569956    0.635835
C      1.462474    0.733944   -0.708284
C     -1.987561   -0.311144    0.242824
C     -0.281126   -1.457726   -1.182575
C      0.077914   -0.674391    1.142430
C      0.004909    0.933332   -0.535648
C     -0.571688   -0.441767   -0.219329
O     -0.215726   -2.011651    3.110044
O     -0.927620    2.714234   -1.672418
O      0.520830   -2.427856   -0.928189
O     -0.828781   -1.470367   -2.429593
H     -4.388043   -1.263595    1.261901
H     -5.370435   -0.584035   -0.095336
H     -4.435873    0.540877    0.908381
H     -4.661906    0.232967   -1.890286
H     -3.398678    1.328478   -1.288884
H     -2.949888    0.120799   -2.524878
H      5.241127   -0.769702    0.021377
H      3.982172   -1.392115    1.102041
H      3.690412   -1.490052   -0.661266
H      4.403594    2.075188   -1.022606
H      3.846812    0.514020   -1.846402
H      2.099105    1.816025   -2.434316
H      2.128089    2.790361   -0.874060
H     -2.807149    0.076554    2.197900
H      0.293394    2.477397    1.001461
H     -1.365728    2.180652    0.476512
H      1.941486   -1.533974    0.654694
H      1.832936   -0.829945    2.264329
H     -1.655587   -1.882034    1.682128
H     -0.208912   -2.791305    1.225833
H     -0.741170    1.043381   -2.672774
H     -3.249197   -1.680709   -0.761320
H      4.207452    1.052322    0.988223
H     -0.288975    0.791466    2.737569
H      1.981912    1.390625    1.326766
H      1.627009   -0.215433   -1.267400
H      0.088534   -1.115491    3.384429
H     -1.021834   -2.298017   -2.986230
