54

C      4.954606   -0.868900   -1.696417
C      4.306768    1.414134   -2.107064
C     -4.287885   -0.256540   -1.221416
C     -4.034870    1.252713    0.645512
C     -1.139133    1.065497    1.806582
C      3.337563   -0.601307    2.956987
C     -2.471758   -2.128163    0.953910
C     -0.470407    0.634329   -2.111837
C     -1.660161    1.177853   -1.283788
C     -3.669135   -1.220830    0.942620
C     -1.236677   -1.390139    1.434381
C      1.921415    0.372126   -1.511124
C      1.376538   -0.173336    1.147492
C      4.368267    0.356534   -0.931722
C      0.581557    0.306654   -1.082457
C      2.947841    0.165731   -0.595882
C      0.321295    0.034726    0.218929
C      2.663168   -0.103174    0.722090
C     -2.030223    0.061495   -0.347553
C     -3.472743   -0.007142    0.046731
C     -1.077799   -0.038720    0.781871
O      3.709745   -0.302469    1.601397
H      5.431481   -1.555368   -0.940376
H      4.169480   -1.359406   -2.254023
H      5.753398   -0.502734   -2.342163
H      5.261514    1.880414   -2.241477
H      4.088487    0.851303   -3.076152
H      3.499390    2.107767   -1.952502
H     -3.621700   -0.055322   -2.123315
H     -5.124913    0.427299   -1.298803
H     -4.579311   -1.334575   -1.322882
H     -5.153230    1.297857    0.421078
H     -3.617781    2.180993    0.235130
H     -4.011338    1.154932    1.747433
H     -0.099589    1.476501    2.023793
H     -1.765549    1.903869    1.590654
H     -1.426332    0.600423    2.785418
H      4.210259   -0.823502    3.582331
H      2.775054    0.223722    3.428054
H      2.618874   -1.476723    2.956386
H     -2.730517   -2.971253    1.636214
H     -2.326257   -2.544163   -0.091869
H     -0.095104    1.447107   -2.779143
H     -0.819325   -0.256974   -2.622236
H     -2.452522    1.535411   -1.945184
H     -1.221721    1.991567   -0.621873
H     -4.553823   -1.789828    0.568194
H     -3.856188   -0.859366    1.978132
H     -0.395630   -2.066419    1.286504
H     -1.349774   -1.266063    2.543969
H      2.158520    0.588637   -2.531576
H      1.133393   -0.388760    2.155672
H      5.032168    0.709769   -0.197530
H     -1.869391   -0.878187   -0.967100
