29

C     -0.678781   -1.193369   -1.011895
C      3.294223    0.694853    0.851951
C     -2.118006   -0.978818   -0.585350
C      1.962841    0.799205    0.461365
C     -0.801693    0.683788    0.366132
C     -3.272094    0.849990    0.692662
C      0.043032    0.121468   -0.758782
C      4.052425   -0.329049    0.309367
C      2.156270   -1.034227   -0.924126
C     -2.182733    0.501375   -0.278317
F     -2.238565    1.212429   -1.445738
N      3.456499   -1.147321   -0.551556
N      1.411842   -0.058347   -0.414730
O     -4.511464    0.499035    0.221268
O      5.380294   -0.446031    0.688679
O      1.701301   -1.860430   -1.741249
H     -0.181610   -1.954395   -0.360525
H     -0.629335   -1.484234   -2.059901
H      3.724125    1.387502    1.554198
H     -2.828497   -1.274484   -1.385046
H     -2.279072   -1.535977    0.363062
H      1.405604    1.610580    0.906673
H     -0.597615    1.744535    0.576779
H     -0.724306    0.018466    1.227718
H     -3.250677    1.951551    0.824535
H     -3.034375    0.405687    1.673961
H     -0.088774    0.756622   -1.665382
H     -5.188333    0.917589    0.819145
H      6.017473   -0.857995    0.008334
