29

C     -0.661299    0.491943    1.410285
C     -2.049914   -0.161692    1.411809
C     -0.815939   -0.785509   -0.551459
C      2.023844   -0.699984   -0.823734
C     -3.289342   -0.420000   -0.670032
C      0.131157   -0.466448    0.602084
C      3.251977   -0.320356   -1.325917
C      3.814803    0.820135   -0.786352
C      1.955025    1.100575    0.655254
C     -2.123620   -0.965244    0.148955
F      3.885856   -1.026422   -2.303453
F     -2.380284   -2.290500    0.431415
N      3.148494    1.492576    0.185634
N      1.397181    0.008818    0.151233
O     -3.084495    0.925139   -0.970069
O      5.055520    1.276568   -1.235615
O      1.416852    1.787485    1.554828
H     -0.800623    1.463358    0.889934
H     -0.370143    0.584895    2.462734
H     -2.833107    0.601981    1.512329
H     -2.118453   -0.844951    2.290679
H     -0.859003    0.036937   -1.288793
H     -0.506844   -1.702062   -1.093323
H      1.590353   -1.598789   -1.255541
H     -3.317167   -1.021230   -1.612234
H     -4.223171   -0.584274   -0.099531
H      0.277997   -1.401819    1.167060
H     -3.799836    1.441816   -0.485846
H      5.284179    2.257052   -1.148849
