39

C      5.254562    0.548359    0.446492
C      2.916782    1.474721    0.434160
C     -0.467783   -2.495487    0.860600
C      2.153306   -1.645620   -0.085639
C      3.427679   -0.960077    0.102109
C      0.983082   -0.749249   -0.100033
C     -3.454892    0.301259    0.734103
C     -2.388271   -0.580946    0.765197
C     -2.737609    1.138749   -1.386519
C     -4.766218    2.086171   -0.352910
C      3.749564    0.277355    0.304571
C     -0.330726   -1.523469   -0.295815
C     -3.622763    1.154435   -0.339909
C     -1.491675   -0.601372   -0.288372
C     -1.661538    0.256460   -1.367310
O     -5.554589    1.937056    0.790293
O     -0.738763    0.201404   -2.401830
H      5.758436   -0.092280   -0.318265
H      5.508623    0.287879    1.482852
H      5.489716    1.595297    0.208584
H      3.592643    2.388141    0.589127
H      2.418687    1.705275   -0.518623
H      2.261161    1.503677    1.330332
H      0.226965   -3.355777    0.780652
H     -1.486454   -2.958522    0.820085
H     -0.360866   -1.983919    1.836164
H      2.056298   -2.471612    0.685100
H      2.244237   -2.236182   -1.059188
H      4.301446   -1.694187    0.056756
H      0.873261   -0.267096    0.882831
H      1.058205   -0.075128   -0.965320
H     -4.144746    0.297715    1.574066
H     -2.247091   -1.250713    1.599805
H     -2.825814    1.783269   -2.245764
H     -5.422739    1.841570   -1.237360
H     -4.417842    3.132707   -0.450136
H     -0.254085   -2.106695   -1.221069
H     -5.053664    2.311280    1.557713
H     -0.846526    0.825552   -3.207532
