49

C      4.637586   -1.022791    1.001071
C      4.773953    1.523386    0.886084
C     -3.007566   -0.342948   -4.733730
C      1.642895   -2.144554   -0.843522
C      1.815179   -0.736345    1.762027
C      2.718489    0.385933    1.477368
C      0.579404   -0.734054    0.868233
C     -0.949789   -1.313803   -3.764091
C     -0.040702   -1.424023   -2.745165
C     -2.286161    2.221583    2.200874
C     -4.082946    0.711185    2.368175
C     -2.698496    2.821224    3.391951
C     -4.479703    1.324805    3.558139
C     -2.201215    0.285351   -2.469133
C      3.979812    0.284033    1.136107
C     -2.033309   -0.449615   -3.614630
C      0.876103   -0.827758   -0.570644
C     -2.982114    1.153740    1.678594
C     -0.178328   -0.682856   -1.548098
C     -1.242852    0.145014   -1.435705
C     -2.588541    0.502022    0.453830
N     -3.774233    2.352392    4.022639
O     -3.275530   -0.465438    0.018490
O     -1.450121    0.901321   -0.292338
H      5.756650   -0.885802    0.849271
H      4.482814   -1.571135    1.979502
H      4.315354   -1.625060    0.143619
H      4.892485    2.141487    1.792499
H      5.786361    1.306182    0.495041
H      4.281410    2.183150    0.118063
H     -3.226582    0.740651   -4.913984
H     -3.911351   -0.913291   -4.477221
H     -2.548735   -0.721146   -5.670760
H      0.877039   -2.921532   -1.086903
H      2.149230   -2.493113    0.067149
H      2.407597   -1.998666   -1.619667
H      1.384746   -0.506006    2.796246
H      2.244336   -1.718289    1.853631
H      2.254970    1.391948    1.570512
H     -0.041992   -1.591409    1.187108
H      0.105968    0.261890    1.133253
H     -0.872087   -1.866803   -4.689217
H      0.803243   -2.076836   -2.851905
H     -1.427365    2.606419    1.711272
H     -4.667513   -0.118541    2.012187
H     -2.129272    3.663718    3.777950
H     -5.343472    0.985612    4.107046
H     -3.039160    0.960556   -2.339161
H      1.713510   -0.052788   -0.752060
