45

C      4.750977    1.598572    0.021122
C      3.369425    2.670002   -1.799730
C      2.296692    1.195425   -0.158252
C     -2.269695    1.727414    0.264815
C     -3.830677   -0.038917    0.247758
C     -2.969645    2.357378   -0.741873
C     -4.543160    0.600160   -0.775325
C      2.151941    0.289318    0.991253
C      1.472494   -3.201584   -0.284828
C     -2.411634   -1.507509    2.178828
C      3.403873    1.762621   -0.585606
C     -2.688016    0.506606    0.785548
C     -4.114830    1.809287   -1.279311
C      1.501151   -1.013289    0.645734
C      2.165051   -2.028335    0.005287
C      0.148716   -3.318100    0.073364
C     -1.948374   -2.429687    1.101255
C     -1.927796   -0.139446    1.851622
C     -0.547068   -2.327403    0.713341
C      0.151695   -1.173573    0.993289
O     -4.827234    2.443667   -2.298952
O      3.501754   -1.915730   -0.357415
O     -0.581580   -4.491007   -0.204960
O     -2.658344   -3.263777    0.521168
O     -0.540641   -0.155840    1.644011
H      5.278332    2.581884   -0.069836
H      5.354119    0.859345   -0.561894
H      4.675990    1.348214    1.087978
H      3.762582    3.639736   -1.453045
H      2.357484    2.701790   -2.212667
H      4.124432    2.254863   -2.510148
H      1.366317    1.412259   -0.710381
H     -1.361447    2.155662    0.695781
H     -4.187786   -0.983082    0.624316
H     -2.639724    3.301527   -1.137389
H     -5.449729    0.151049   -1.191230
H      1.565664    0.783759    1.793508
H      3.160043    0.081508    1.449187
H      1.994316   -4.005801   -0.791607
H     -3.471716   -1.598467    2.412653
H     -1.884417   -1.793761    3.141042
H     -2.085674    0.487477    2.779430
H     -5.571306    3.097329   -2.085186
H      4.106364   -1.157616   -0.213855
H     -0.148919   -5.273929   -0.673769
