40

C      4.060240    0.746554    0.663161
C      0.119562    2.349591    0.684229
C     -0.700874   -2.082853   -1.220692
C     -1.598488    0.044732   -2.011501
C      1.928180   -0.280206    1.299297
C      2.280377   -0.103850   -1.035604
C      0.662328   -0.897606    0.837827
C      0.859084    0.362110   -1.222311
C     -2.003567    1.321332    1.032662
C      2.762367    0.117065    0.350346
C     -0.582647    1.252180    0.527799
C     -2.666739    0.006838    1.182167
C     -2.416681   -0.967053    0.095959
C     -1.232759   -0.750278   -0.750482
C     -0.076925   -0.009556   -0.097753
Br    -2.427181   -2.742354    0.923116
O     -2.454113   -0.535808    2.475059
H      4.400332    1.471376   -0.100082
H      4.826598   -0.052546    0.746019
H      3.992774    1.219580    1.670066
H     -0.330679    3.213741    1.146464
H      1.123928    2.420223    0.368999
H      0.283876   -2.026062   -1.677689
H     -1.408345   -2.467980   -2.004183
H     -0.747153   -2.865589   -0.414146
H     -2.701123    0.174955   -2.018530
H     -1.333048   -0.489011   -2.928010
H     -1.168264    1.069191   -1.971599
H      2.187633   -0.146419    2.342085
H      2.471848   -1.140687   -1.301743
H      2.927372    0.523075   -1.695062
H      0.078100   -1.242747    1.708137
H      0.867647   -1.849954    0.260104
H      0.913797    1.478846   -1.383966
H      0.538946   -0.093154   -2.206098
H     -2.597902    1.927265    0.287538
H     -2.058026    1.872603    1.988337
H     -3.779590    0.222600    1.201522
H     -3.312846   -0.989052   -0.594266
H     -1.688038   -0.061094    2.842822
