40

C      5.929330    0.699509   -0.736014
C      0.436355   -2.323985    0.958054
C     -4.449230    0.563230   -1.868071
C     -4.750895    0.041734    0.565093
C      4.218579   -1.132679   -0.663752
C     -0.383502   -0.014067    0.074031
C      2.934878   -1.547519   -0.406435
C     -1.895023   -0.341864   -0.155313
C      3.582427    1.083239   -0.025563
C      4.574704    0.194989   -0.476557
C      0.524188   -1.135152    0.088550
C      1.964161   -0.653248    0.038573
C      2.300558    0.634046    0.219870
C     -2.669078    0.900584   -0.295583
C     -4.109080    0.990652   -0.425046
O      1.418455    1.616165    0.672697
O     -2.053260    1.977833   -0.311880
O     -4.552177    2.326461   -0.264129
H      6.130701    1.513753    0.019613
H      6.637210   -0.112427   -0.519679
H      6.045750    1.059331   -1.781012
H      1.472768   -2.755053    1.112201
H     -0.198774   -3.155041    0.557055
H      0.126006   -2.070995    2.012532
H     -4.725279   -0.496733   -1.839647
H     -5.352295    1.155558   -2.162709
H     -3.590641    0.761489   -2.527171
H     -4.073051   -0.382730    1.305962
H     -5.119790   -0.824956   -0.024151
H     -5.533622    0.603095    1.092866
H      4.951923   -1.853810   -1.022380
H     -0.107903    0.612989   -0.870226
H     -0.386396    0.687989    0.914741
H      2.706685   -2.602322   -0.603616
H     -1.938261   -1.021058   -1.003566
H     -2.237133   -0.928374    0.751575
H      3.860455    2.087565    0.122638
H      0.447510   -1.609055   -1.006078
H      1.679547    2.569777    0.876239
H     -3.816801    2.881081    0.048708
