40

C      4.284062   -0.280814   -0.324508
C      0.302612    0.650140   -2.315845
C     -0.929880   -1.048241    2.084219
C     -2.025061   -1.533939   -0.030670
C      2.044510   -1.397477    0.432450
C      0.745121   -1.344709   -0.312911
C     -1.944054    0.953702   -1.518165
C      0.780723    0.959727    0.619833
C      2.858046   -0.172266    0.093134
C     -0.566410    0.514072   -1.324523
C      2.201386    0.966881    0.193123
C     -2.701025    1.334222   -0.289915
C     -2.228352    0.680353    0.970627
C     -1.276642   -0.461941    0.731115
C     -0.055537   -0.086424   -0.067410
Br    -1.541111    1.973029    2.240059
Cl     3.071486    2.436769   -0.192939
O     -2.594796    2.714790   -0.129890
H      4.371701   -0.425935   -1.418703
H      4.865399    0.622477    0.018447
H      4.714053   -1.130136    0.254740
H      1.338234    0.363702   -2.288343
H     -0.046500    1.087514   -3.243560
H     -0.502885   -0.331169    2.784436
H     -0.346336   -1.960853    1.915970
H     -1.903970   -1.383249    2.526482
H     -2.095637   -2.491493    0.538164
H     -3.072065   -1.247045   -0.260271
H     -1.550339   -1.765596   -1.014604
H      2.590469   -2.285572    0.095190
H      1.953394   -1.408381    1.518616
H      0.176238   -2.260314   -0.032712
H      0.958688   -1.404517   -1.395052
H     -1.911531    1.823781   -2.244469
H     -2.469951    0.159090   -2.103500
H      0.777895    0.845414    1.723706
H      0.401372    1.996183    0.431196
H     -3.778359    1.136409   -0.473132
H     -3.112138    0.229900    1.477474
H     -1.782808    2.971918    0.332144
