56

C      6.280307   -0.462428    0.369347
C      1.145786   -0.556005   -2.692937
C     -3.989516   -1.047602    0.568920
C     -4.079576   -0.313725   -1.743901
C      3.761994    1.217485    1.879187
C     -0.611307   -0.956919    1.397630
C      5.337641    0.442462    0.225438
C     -0.312250   -2.124997   -1.594695
C     -1.663437   -1.976794   -0.914851
C      1.596506    0.054357    0.416730
C     -2.615207    1.569066    1.165714
C      2.912163    0.288583   -0.281875
C     -1.174531    1.336628    0.861141
C      0.436410   -0.838433   -1.610120
C      0.433199    0.130903   -0.504366
C     -1.891927   -0.495388   -0.711072
C     -3.417180    1.304868   -0.069107
C     -3.310864   -0.153282   -0.418961
C      3.993027    0.178012    0.802732
C     -0.876271   -0.004975    0.254033
O     -4.730847    1.748644    0.026541
O      3.902110   -1.106758    1.306717
H      6.078310   -1.375123    0.895334
H      7.257851   -0.292138   -0.039278
H      1.194611   -1.225712   -3.553031
H      1.712157    0.363535   -2.769715
H     -4.994879   -1.416118    0.204638
H     -4.258597   -0.417062    1.466714
H     -3.434598   -1.940575    0.856515
H     -4.893311    0.438335   -1.786321
H     -4.491111   -1.331271   -1.796069
H     -3.391045   -0.165651   -2.596958
H      4.744872    1.464573    2.323141
H      3.272197    2.100632    1.449856
H      3.138681    0.822433    2.707349
H      0.118456   -0.438195    2.077204
H     -1.508939   -1.117752    2.026288
H     -0.126659   -1.898350    1.091879
H      5.525196    1.374202   -0.305507
H     -0.521587   -2.463892   -2.630853
H      0.310118   -2.914569   -1.124948
H     -2.501069   -2.329905   -1.566695
H     -1.701175   -2.573349   -0.005994
H      1.486201    0.855075    1.174325
H      1.656462   -0.961655    0.855709
H     -2.716653    2.663325    1.419552
H     -2.930090    1.013306    2.052632
H      3.145241   -0.475537   -1.047083
H      2.955041    1.313038   -0.692039
H     -0.790824    2.111420    0.168751
H     -0.583168    1.440142    1.803493
H      0.425127    1.173005   -0.933768
H     -1.655393   -0.023184   -1.712522
H     -2.949861    1.874684   -0.899968
H     -4.709274    2.726631   -0.136243
H      4.011482   -1.062972    2.291366
