61

C     -5.094380   -2.254324   -0.150631
C     -0.796002    1.549165   -2.560433
C      5.214670    1.699688    4.103727
C      3.659513    0.565752   -0.258035
C      2.853756   -1.200675    1.194496
C     -4.965311   -0.820768   -2.807742
C     -0.238931   -1.133501    1.311573
C     -4.796317   -0.994902   -0.393018
C      0.443716   -0.582033   -2.447725
C      1.460368   -0.942914   -1.368847
C     -1.762062   -1.294941   -0.789145
C      0.985984    1.353822    2.267160
C     -2.822195   -1.363906   -1.835056
C     -0.146812    1.291702    1.268009
C     -0.535905    0.442632   -1.919846
C      4.271392    1.958673    2.990044
C     -1.155732    0.064084   -0.599952
C      1.282797    0.090734   -0.275274
C      2.329925    1.209858    1.660080
C      2.479059    0.136406    0.634001
C     -4.052918   -0.541071   -1.604041
C     -0.021388    0.026068    0.415901
O      4.371466    2.998105    2.307326
O     -3.736236    0.791638   -1.556210
O      3.276703    1.044181    2.707105
H     -5.637749   -2.517015    0.750299
H     -4.789728   -3.006516   -0.860174
H     -0.315984    1.771786   -3.497613
H     -1.495435    2.253353   -2.155745
H      4.681206    1.257602    4.985241
H      6.005676    1.009359    3.743383
H      5.690582    2.626726    4.434878
H      4.129955   -0.335628   -0.720764
H      3.367879    1.326325   -0.981308
H      4.419540    0.974652    0.438649
H      2.858244   -1.129958    2.313107
H      3.908133   -1.512529    0.942299
H      2.221411   -2.035257    0.827768
H     -5.804440   -0.119989   -2.805289
H     -5.250582   -1.875228   -2.759130
H     -4.317611   -0.656123   -3.707033
H     -0.284913   -2.115745    0.833820
H     -1.247699   -0.982647    1.802007
H      0.463930   -1.144428    2.195942
H     -5.096374   -0.210238    0.314521
H      0.940733   -0.098150   -3.319088
H     -0.096705   -1.472845   -2.799364
H      2.459931   -0.793863   -1.812875
H      1.394044   -1.971101   -1.032080
H     -2.223761   -1.680254    0.155118
H     -0.999693   -2.058539   -1.075613
H      0.934025    2.392331    2.711118
H      0.853690    0.656917    3.097292
H     -2.439555   -1.102440   -2.854095
H     -3.194252   -2.425219   -1.977560
H     -1.084634    1.262926    1.848993
H     -0.142265    2.182948    0.634331
H     -1.922256    0.773876   -0.271829
H      1.300580    1.082308   -0.827120
H      2.587103    2.193400    1.172932
H     -4.378184    1.371023   -2.038486
