49

C      6.329116   -0.260148    1.452067
C     -5.854636   -0.407264   -1.659278
C      2.936684    0.536721   -2.146337
C     -3.127074   -0.114489    2.534510
C      4.115604    0.301715   -2.821577
C     -4.361848    0.405463    2.874460
C      1.562736    0.781212   -0.129819
C      4.005055    0.264228   -0.026895
C     -3.829576   -0.521396    0.316613
C     -1.523002   -1.121680    0.954700
C      0.470244   -1.185609   -1.178683
C      2.875398    0.519640   -0.769931
C     -2.849247   -0.576956    1.272586
C      0.754510   -0.467598    0.116000
C      5.255507    0.043961   -2.072679
C     -5.339908    0.457563    1.909316
C      5.184716    0.028854   -0.690325
C     -5.085053   -0.000322    0.636218
C     -1.142241    0.428247   -0.869173
C     -0.654860    0.011176    0.472069
O      6.480810   -0.202351   -2.680066
O     -6.615674    0.980573    2.211808
O     -1.962054    1.361337   -1.070850
O     -0.628623    1.048678    1.373667
O      6.348189   -0.233492    0.042361
O     -6.092541    0.061662   -0.329408
O     -0.529801   -0.391196   -1.804281
H      5.528451   -0.884555    1.872861
H      7.323161   -0.598098    1.790468
H      6.205885    0.775187    1.858383
H     -6.811057   -0.462071   -2.218001
H     -5.402192   -1.419353   -1.662805
H     -5.191487    0.300522   -2.201423
H      2.035838    0.742554   -2.749052
H     -2.326946   -0.171083    3.276211
H      4.158645    0.316461   -3.917216
H     -4.543416    0.758977    3.875093
H      1.655065    1.347716    0.807232
H      0.943598    1.426920   -0.813900
H      3.934049    0.255548    1.063344
H     -3.692081   -0.864953   -0.701972
H     -1.595051   -1.906055    0.178167
H     -1.058852   -1.614554    1.851406
H      1.350846   -1.347576   -1.812661
H      0.069698   -2.213973   -0.958179
H      1.177630   -1.113845    0.892692
H      6.585712   -0.202883   -3.676871
H     -6.839684    1.322804    3.124261
H     -0.230245    0.733539    2.204891
