22

C     -0.311795   -1.837697   -0.034551
C     -1.346287   -0.948055   -0.715325
C      1.042084   -1.189260   -0.139999
C     -1.503794    0.322163    0.102682
C      0.879688    0.297600   -0.464465
C     -0.136104    0.821574    0.531863
N      2.162838    0.966696   -0.330774
N     -0.083661    2.239470    0.698421
H     -0.651374   -1.919397    1.033320
H     -0.292650   -2.834154   -0.505937
H     -2.337186   -1.437070   -0.729511
H     -1.083257   -0.739246   -1.770095
H      1.499308   -1.227931    0.882152
H      1.729671   -1.694712   -0.819898
H     -2.052778    1.083554   -0.487133
H     -2.108528    0.033778    0.998593
H      0.555389    0.449740   -1.515153
H      0.080851    0.335064    1.519036
H      2.924438    0.278962   -0.176305
H      2.150802    1.756524    0.323829
H     -0.589521    2.775610   -0.025786
H     -0.528134    2.466785    1.625038
