52

C      5.079560    0.619754   -1.263777
C      4.979035    1.457359    1.033358
C     -4.046914    0.855788    1.333016
C     -3.907889    0.774074   -1.107163
C     -0.573522   -1.544922    0.832951
C     -2.786504   -2.070685   -0.732009
C      2.568281   -0.951474   -0.771535
C      0.071229    1.064874    1.598828
C      1.288958   -0.537613   -1.466838
C     -1.400590    0.913805    1.627060
C     -3.628069   -1.262239    0.191972
C     -1.632883   -1.281968   -1.340101
C      2.329382    0.954902    0.722482
C      4.585259    0.301257    0.142691
C      3.123405    0.132684    0.056360
C      0.871711    0.746955    0.606122
C      0.303709    0.173307   -0.649335
C     -1.878192    0.540875    0.265005
C     -3.319182    0.205378    0.167976
C     -0.939104   -0.559994   -0.242895
H      5.163169   -0.301425   -1.850568
H      4.420311    1.382879   -1.742416
H      6.084264    1.084880   -1.127677
H      6.089733    1.420496    1.166860
H      4.748100    2.427510    0.598207
H      4.554230    1.273307    2.036247
H     -3.784089    1.946331    1.298180
H     -3.817859    0.399328    2.296227
H     -5.133026    0.810522    1.084077
H     -3.171520    1.383195   -1.671406
H     -4.257608   -0.020985   -1.803573
H     -4.775537    1.434438   -0.901257
H     -1.305391   -1.637783    1.636298
H      0.410111   -1.346515    1.306668
H     -0.507720   -2.571991    0.364207
H     -2.419522   -2.954890   -0.212402
H     -3.364951   -2.454827   -1.618838
H      2.446745   -1.883245   -0.186574
H      3.304192   -1.181894   -1.569536
H      0.526777    1.490071    2.511989
H      0.919845   -1.422004   -1.997017
H      1.640636    0.153101   -2.294001
H     -1.701595    0.197255    2.426603
H     -1.825822    1.909795    1.951181
H     -3.670442   -1.678510    1.239715
H     -4.696655   -1.362097   -0.167481
H     -0.985682   -2.057140   -1.799653
H     -1.966099   -0.630331   -2.171485
H      2.702074    1.755335    1.334983
H      5.065428   -0.643326    0.448229
H     -0.064658    1.086287   -1.212677
H     -1.715123    1.460118   -0.377279
