37

C      3.932402    1.120034    0.524508
C      5.541670   -0.694160   -0.286612
C      3.168809   -0.890149   -0.642476
C      1.777314   -0.380376   -0.513364
C     -5.153406    1.226482   -0.430138
C     -4.722750    0.938107   -1.673307
C     -0.951118   -0.417326    1.532358
C      4.156329   -0.168110   -0.148241
C     -0.461642   -0.727232    0.338883
C      0.897176   -1.317085    0.259068
C     -4.377663    0.985132    0.680415
C     -3.439975    0.372197   -1.846050
C     -2.280363    0.164936    1.662404
C     -3.121651    0.430864    0.509222
C     -2.634979    0.116147   -0.760941
C     -1.303557   -0.461889   -0.823967
O      1.373768   -1.590883    1.525359
O     -4.815275    1.278723    1.950317
O     -3.011516    0.083045   -3.109817
O     -2.750997    0.462146    2.804914
O     -0.818556   -0.763675   -1.930576
H      3.501363    1.896345   -0.130457
H      4.835360    1.536910    0.994302
H      3.197210    0.970980    1.361857
H      6.235760    0.177461   -0.330173
H      5.752299   -1.276018    0.651822
H      5.607865   -1.355305   -1.159288
H      3.313261   -1.825656   -1.132905
H      1.727420    0.626152   -0.063003
H      1.390883   -0.294558   -1.545827
H     -6.149869    1.663309   -0.328840
H     -5.308033    1.114103   -2.585220
H     -0.356512   -0.597857    2.433410
H      0.828775   -2.287946   -0.301791
H      2.356850   -1.508721    1.602065
H     -5.743227    1.688678    2.081550
H     -2.193426   -0.294805   -3.427754
