26

C      1.819556   -1.237689   -0.753441
C     -3.353317    0.582057    1.394346
C     -0.966421   -0.270499   -1.694210
C      3.197989   -1.104127   -0.692640
C     -0.425083   -0.566641   -0.283761
C     -2.421656   -0.379125    0.747833
C      3.731664   -0.034116   -0.017379
C      1.538559    0.680606    0.479325
F      4.039400   -1.998046   -1.279809
N      5.019303    0.138930    0.070308
N      2.880112    0.834729    0.553943
N      0.974234   -0.363347   -0.178713
O     -4.602399   -0.028592    1.501603
O      0.667301    1.578820    1.069792
O     -1.129736    0.184434    0.609663
Se    -2.874715   -0.402381   -1.179550
H      1.406668   -2.089615   -1.291292
H     -2.985784    0.967825    2.368155
H     -3.505055    1.439115    0.674027
H     -0.698116   -1.077776   -2.371683
H     -0.726306    0.739309   -2.015974
H     -0.645324   -1.639811   -0.085016
H     -2.401276   -1.382586    1.158871
H      5.700730   -0.504452   -0.353666
H     -4.986990   -0.066758    0.579479
H      0.746661    2.585701    0.989789
