57

C     -1.536734    1.660432    0.970473
C     -3.596770    2.236725   -0.064374
C      3.542987   -2.301783    0.021210
C      2.604475   -1.884459    2.183461
C     -1.776585    2.619960    1.934023
C     -3.816867    3.184112    0.901319
C      4.273447   -3.344535    0.543836
C      3.351763   -2.937167    2.674796
C     -0.156927   -2.471280    0.169346
C      0.239004    2.660814   -2.529230
C     -2.460666   -2.828245    0.512225
C      2.456677    2.452285   -1.741841
C     -2.456577    1.458914   -0.049360
C      2.697531   -1.552716    0.822812
C     -2.911628    3.399689    1.925397
C      4.188753   -3.680100    1.885432
C     -1.195510   -3.261197    0.613976
C      1.496261    3.181798   -2.399700
C     -0.361619   -1.216873   -0.392848
C     -0.090287    1.422998   -2.017928
C     -2.712236   -1.564016   -0.052712
C      2.170228    1.211059   -1.215170
C     -2.178639    0.441912   -1.094093
C     -1.655742   -0.759996   -0.507371
C      0.891394    0.715696   -1.365815
C      0.896790   -0.623291   -0.726028
C     -1.492703    1.067967   -2.257392
C      1.938523   -0.438608    0.300985
O     -3.178710    4.371979    2.881491
O      4.952995   -4.736290    2.325361
O     -0.953208   -4.524610    1.177859
O      1.761778    4.428723   -2.935923
O     -4.031742   -1.239266   -0.095087
O     -2.261094    2.158894   -2.665791
O      2.938193    0.275263   -0.509139
H     -0.611352    1.070016    1.043426
H     -4.320231    2.077551   -0.866987
H      3.611525   -2.049274   -1.006114
H      1.952156   -1.321842    2.848922
H     -1.066638    2.800368    2.750961
H     -4.732895    3.791450    0.867908
H      4.935991   -3.922863   -0.111083
H      3.300572   -3.219674    3.730489
H      0.805664   -2.916388    0.275862
H     -0.512896    3.244026   -3.049709
H     -3.306220   -3.440279    0.860995
H      3.455215    2.858151   -1.634788
H     -3.205726    0.177250   -1.529703
H      1.369480   -1.287089   -1.528405
H     -1.509139    0.355502   -3.132371
H      1.667959    0.308489    1.077247
H     -2.860239    5.313120    2.729899
H      4.999108   -5.093468    3.253304
H     -0.942975   -5.296771    0.520110
H      2.094099    4.500879   -3.895784
H     -4.454281   -0.440221   -0.408590
H     -2.245730    2.906279   -2.019788
