49

C     -7.703940    1.075992   -1.601189
C     -6.456508    0.295851   -1.178549
C      1.160407   -0.668017    1.422879
C      2.534393   -0.676013    1.295298
C      5.444924   -0.828126    0.824765
C      4.823459    1.036789   -0.670498
C      6.827451   -0.207479    0.705163
C      5.886264    0.951363   -1.713943
C      0.872591   -0.207849   -0.856916
C     -4.369050    0.740382    0.852492
C     -1.937880    0.633502    1.030254
C      4.516002   -0.408504   -0.241399
C      0.284243   -0.438657    0.375178
C     -3.219207   -0.059194    1.465281
C      3.079490   -0.444520    0.067063
C      2.238052   -0.206770   -1.026353
C     -6.515572   -0.081480    0.228945
C     -1.960789   -1.549684    0.296555
F      2.742186    0.027290   -2.282754
N     -5.622964    0.116228    1.068828
N     -1.116005   -0.439992    0.557908
O     -7.687356   -0.728114    0.670937
O     -1.679774   -2.605159   -0.357285
O      8.427838    1.062326   -0.952280
O     -3.210385   -1.345335    0.869634
S      7.303061    0.004398   -1.045426
H     -8.567515    0.517908   -1.148386
H     -7.626865    2.114574   -1.253555
H     -7.745586    0.975940   -2.713758
H     -6.348206   -0.627441   -1.823163
H     -5.588548    0.925032   -1.436110
H      0.756247   -0.851272    2.401801
H      3.190239   -0.858957    2.133090
H      5.606804   -1.944485    0.733169
H      5.147064   -0.653188    1.859719
H      5.148423    1.625447    0.227115
H      3.950910    1.544506   -1.081064
H      6.765082    0.772671    1.216917
H      7.539666   -0.899478    1.179519
H      6.183043    1.904462   -2.147699
H      5.476506    0.296153   -2.532474
H      0.210308   -0.024909   -1.704252
H     -4.122761    0.874892   -0.198579
H     -4.393331    1.712455    1.418837
H     -1.497853    1.232675    1.844979
H     -2.132216    1.326188    0.168902
H      4.653195   -1.045552   -1.158214
H     -3.306697   -0.156484    2.543360
H     -7.958842   -0.667702    1.665260
