18

C     -0.870407    1.717525   -0.179680
C      1.082621   -0.858621   -0.362150
C     -1.116818    0.250816    0.145844
C     -0.323752   -0.642015   -0.741009
O     -0.773032   -0.042506    1.470701
O     -0.986023   -1.888620   -0.780881
O      2.091254   -0.085372    2.043121
O      3.169424    0.789067    0.055996
S      0.670101    2.123150    0.736574
S      1.823936    0.362324    0.627255
H     -1.694488    2.368073    0.099923
H     -0.612537    1.804975   -1.253861
H      1.182965   -1.850095    0.163873
H      1.699816   -0.989532   -1.296334
H     -2.191257    0.027748    0.003737
H     -0.414000   -0.245718   -1.788940
H     -0.808420   -1.036510    1.538165
H     -1.929384   -1.804691   -0.482334
