26

C     -1.492662   -0.904985    0.202217
C      3.343490   -1.431154    0.002235
C      0.945058    0.988492   -1.008864
C     -2.858301   -1.100373    0.191478
C      0.407429    0.538871    0.333599
C      2.355685   -0.309469   -0.012150
C     -3.674660    0.005710    0.306544
C     -1.809045    1.402897    0.433499
F     -3.391422   -2.360157    0.069707
N     -4.957314   -0.175052    0.296739
N     -3.134029    1.210109    0.422758
N     -1.009083    0.340486    0.322877
O      4.496906   -0.992684   -0.647890
O     -1.257911    2.665679    0.555442
O      2.007459    0.102145   -1.297285
O      1.120982   -0.656389    0.522841
H     -0.852297   -1.787283    0.110513
H      3.592271   -1.668207    1.035765
H      2.968988   -2.323988   -0.551900
H      0.189368    0.933476   -1.806506
H      1.358424    2.009948   -0.954006
H      0.756012    1.227459    1.124378
H      2.755247    0.514222    0.610619
H     -5.373010   -1.125541    0.204959
H      4.419306   -0.042678   -0.955050
H     -0.906890    2.938467    1.467516
