33

C      1.355758    5.049780   -2.043123
C      1.189556    3.909037   -2.797482
C      1.405272    4.927847   -0.658313
C      1.072184    2.673602   -2.269223
C      1.282679    3.655491   -0.122550
C     -3.283769   -2.936833   -0.048508
C     -2.296134   -3.744865    0.417292
C      0.848111    1.206272   -0.249659
C      0.627015    0.111424    0.259851
C     -1.951043   -1.021389   -0.051767
C      1.113867    2.498021   -0.850069
C     -3.160810   -1.593924   -0.297444
C     -0.894181   -1.807737    0.442018
C     -1.016611   -3.139411    0.680390
C      1.275717   -3.396401    0.808568
C      0.352405   -1.150792    0.841707
C      0.512118   -1.086579    2.394599
Cl    -4.539118   -0.709149   -0.964390
F      1.861232   -0.684618    2.570517
F     -0.288397   -0.223921    3.009131
F      0.462084   -2.357893    2.937425
N      0.115402   -4.012188    0.893078
O      2.405487   -4.230005    1.032806
O      1.422439   -2.054106    0.516687
H      1.453323    6.044934   -2.448737
H      1.144098    4.012018   -3.905878
H      1.530431    5.756192    0.019901
H      0.937479    1.745772   -2.812695
H      1.308053    3.544869    0.977465
H     -4.281758   -3.381508   -0.261942
H     -2.381681   -4.783593    0.631026
H     -1.813289    0.038227   -0.240636
H      2.232081   -5.089918    1.589954
