51

C     -3.572727    1.618063    3.351421
C     -3.786037   -2.455861   -0.688500
C     -2.143663   -3.932696    0.482909
C      4.538837    2.102836   -2.407658
C      3.884827   -1.059104   -2.855753
C     -2.920478    0.286394    3.593823
C     -2.183282   -0.241870    2.350679
C     -0.684598    1.736601    2.697416
C     -0.070669   -0.880308   -1.254382
C     -2.318122   -2.661730   -0.331925
C      3.527351    1.147237   -1.833730
C      3.036748    0.219004   -2.902955
C     -1.084339    0.644526    1.931738
C     -0.783938   -0.709543   -0.086568
C      0.959066   -0.010030   -1.611691
C      0.332128    2.522237    2.258103
C     -0.454667    0.354958    0.733571
C      1.281479    1.038545   -0.799645
C      2.401775    1.954946   -1.221958
C      0.581525    1.229016    0.374013
O      0.662594    3.503294    2.983076
O      2.906438    2.553354   -0.068375
O     -1.788751   -1.544103    0.282491
O      1.690625   -0.157974   -2.777438
O      0.920160    2.247243    1.131700
H     -3.248746    2.133644    2.437178
H     -4.690718    1.491041    3.214953
H     -3.488279    2.217553    4.275708
H     -4.443078   -3.039018   -0.004261
H     -3.928858   -2.713867   -1.737857
H     -4.008852   -1.383704   -0.522639
H     -2.990202   -4.053302    1.212945
H     -1.233016   -3.815608    1.107343
H     -2.147103   -4.841210   -0.132509
H      4.511184    3.077215   -1.841641
H      4.376098    2.322572   -3.480566
H      5.546587    1.646547   -2.272798
H      3.325815   -1.789224   -2.226741
H      4.847468   -0.878435   -2.332838
H      4.069881   -1.462803   -3.865865
H     -2.216923    0.309971    4.461823
H     -3.718181   -0.435226    3.862763
H     -2.977017   -0.136089    1.563447
H     -1.904852   -1.265088    2.590842
H     -1.207091    1.915786    3.646646
H     -0.287345   -1.699857   -1.936299
H     -1.779797   -2.847787   -1.279774
H      4.029880    0.529044   -1.039703
H      3.267436    0.682792   -3.892114
H      2.060984    2.702996   -1.948185
H      3.302442    1.827022    0.469783
