41

C      0.266797    1.806592    0.031831
C      1.617819    1.540672    0.181903
C      4.528589    0.872744    0.455525
C      3.992135   -1.414714   -0.218473
C      5.732633    0.879317   -0.460467
C      5.500567   -1.360129    0.068881
C     -0.096046   -0.417987   -0.653130
C     -3.022776    0.158390   -0.978173
C     -4.690506    0.409189    0.850700
C     -0.589516    0.828215   -0.385309
C     -4.313015    0.837612   -0.546360
C      1.246993   -0.657776   -0.497092
C     -2.001467    1.140545   -0.532609
C      2.164417    0.310126   -0.072747
C     -6.212449   -1.410441    0.155411
F      1.689920   -1.902808   -0.773036
N     -5.093477   -0.956479    0.912380
N     -2.575606    2.273723   -0.310198
N      3.512302   -0.062441    0.049117
O     -6.865197   -0.633794   -0.575435
O     -6.607234   -2.740000    0.213148
O      6.101242   -0.404695   -0.739106
O     -3.921186    2.197356   -0.555555
H     -0.111892    2.789132    0.244657
H      2.286665    2.333868    0.517328
H      4.864904    0.556259    1.491094
H      4.198502    1.913544    0.559672
H      3.912491   -1.700361   -1.271833
H      3.574193   -2.117578    0.506441
H      5.442122    1.374866   -1.415982
H      6.509781    1.498808   -0.007068
H      5.970046   -2.340215   -0.247821
H      5.725031   -1.240416    1.134156
H     -0.748631   -1.240789   -0.992663
H     -2.892998   -0.758462   -0.369496
H     -2.983532   -0.026036   -2.060729
H     -3.796305    0.559245    1.484787
H     -5.461703    1.118933    1.213043
H     -5.103921    0.721277   -1.286591
H     -4.566694   -1.635195    1.516970
H     -7.182999   -3.100099   -0.539019
