60

C      8.371890   -0.701165    1.208812
C      4.577831   -1.310526   -1.265282
C      3.914950    0.006758    0.550913
C      0.941617    3.051965   -0.246028
C     -1.366872    2.760720    0.315944
C     -0.095351   -0.387248   -1.354187
C     -4.413291   -1.467328   -1.563305
C      3.632216   -0.477425   -0.707122
C     -0.226408    3.533076    0.297142
C     -0.147004    0.986720   -0.774830
C      5.748105   -1.643910   -0.600240
C      5.070409   -0.312557    1.226322
C      1.242033   -0.963216   -0.866351
C      0.976463    1.766079   -0.785823
C     -1.316486    1.492489   -0.221169
C     -5.221446   -0.287767   -1.143001
C     -6.163996   -0.568143    0.001377
C     -5.360114   -0.779914    1.234904
C     -4.047766   -0.114009    1.301254
C      2.388857   -0.138735   -1.442605
C      6.009238   -1.144160    0.663552
C     -3.685506    0.836403    0.209189
O     -3.724507   -1.126382   -2.727395
O     -0.307533    4.805941    0.845574
O      6.691972   -2.495358   -1.195170
O      5.295863    0.202127    2.478929
O      1.321847   -0.878895    0.519624
O     -6.942838    0.585557    0.189763
O     -5.237507   -2.181296    1.405556
O     -3.917591    0.504542    2.569762
O      7.186774   -1.477499    1.336665
O      2.136929    1.248156   -1.342007
O     -2.390955    0.624993   -0.260951
O     -4.533980    0.848727   -0.870715
H      8.349871    0.105445    1.953837
H      9.210747   -1.368583    1.461513
H      8.467171   -0.247463    0.204998
H      4.442463   -1.744930   -2.262086
H      3.167928    0.671522    1.005288
H      1.831556    3.646336   -0.263849
H     -2.297133    3.150748    0.751008
H     -0.869718   -1.045285   -0.939406
H     -0.042744   -0.388723   -2.443329
H     -3.683165   -1.832901   -0.846072
H     -5.147247   -2.269903   -1.868822
H      1.374055   -2.004662   -1.160403
H     -5.893224   -0.043435   -2.020920
H     -6.794179   -1.449361   -0.218551
H     -6.018652   -0.470340    2.101687
H     -3.248876   -0.913626    1.321478
H      2.463920   -0.455877   -2.510675
H     -3.739196    1.851835    0.641485
H     -3.414968   -1.965648   -3.174784
H     -0.102988    4.923862    1.823988
H      7.537133   -2.732839   -0.709145
H      4.632487    0.818320    2.932638
H      0.429204   -0.647413    0.915194
H     -7.131226    0.733819    1.162337
H     -6.114623   -2.602652    1.547752
H     -3.816438    1.483034    2.453767
