42

C     -3.889531    0.260916   -0.090707
C      3.320674   -1.229555   -0.306958
C      1.298945    2.842354   -0.123306
C      2.114914   -2.128999   -0.149813
C     -0.002955    2.183861   -0.463772
C     -2.645501    0.886693    0.540466
C     -4.030053   -1.113391    0.525433
C      3.298412   -0.138492    0.748838
C      2.184115    2.010714    0.761275
C     -0.345655   -2.047428   -0.018790
C      0.920783   -1.382686    0.418202
C     -0.186797    0.869266    0.295064
C     -1.454665    0.208226   -0.126974
C     -2.716175   -1.779835    0.581926
C      1.020508    0.041248   -0.017287
N      2.160447    0.643089    0.558525
N     -1.501383   -1.192116    0.141660
O     -2.703479   -2.963161    1.063927
H     -3.665837    0.125668   -1.171228
H     -4.762540    0.889382    0.104087
H      3.250365   -0.685934   -1.294528
H      4.267055   -1.770197   -0.266475
H      1.043813    3.797808    0.415308
H      1.865348    3.164183   -1.033745
H      2.410689   -2.985960    0.476504
H      1.842678   -2.501757   -1.158754
H      0.027359    1.904032   -1.537321
H     -0.879901    2.846389   -0.330358
H     -2.641946    1.978530    0.390220
H     -2.633625    0.636738    1.641469
H     -4.403638   -0.963825    1.579192
H     -4.770149   -1.690491   -0.063397
H      4.240614    0.434113    0.691313
H      3.227999   -0.666800    1.743768
H      3.226918    2.412056    0.647388
H      1.903329    2.259420    1.825262
H     -0.236509   -2.289010   -1.113895
H     -0.481128   -2.985264    0.562655
H      1.007434   -1.423826    1.539744
H     -0.237009    1.134685    1.377841
H     -1.579765    0.375023   -1.218284
H      1.135842    0.034336   -1.137621
