68

C     -6.044653   -0.651594   -1.243668
C      5.371070   -2.386971   -1.296423
C     -7.382374   -0.742988   -1.595568
C      5.947482   -2.375904   -2.564759
C     -6.418756    1.542798   -0.493810
C      4.812147   -0.132370   -1.546466
C      2.154201    2.488181    3.362744
C      4.292010    1.985774    2.465546
C     -1.871399    1.301349   -0.902424
C     -1.847096   -1.517241    1.608242
C     -5.526988    0.508883   -0.677572
C      4.789577   -1.260218   -0.760286
C      3.473822    2.832119    3.172505
C     -1.405599    0.270213    0.093493
C     -8.242345    0.317348   -1.394173
C      5.956555   -1.231736   -3.332069
C     -7.751582    1.471104   -0.837022
C      5.376581   -0.101904   -2.801263
C      1.617234    1.299043    2.856983
C     -0.500777   -1.569112    1.883817
C     -3.197924    0.850740   -1.475032
C     -2.296138   -0.576152    0.694626
C      3.750722    0.816020    1.971746
C      2.442900    0.452230    2.147644
C      0.435350   -0.730954    1.297801
C      1.872676   -0.810431    1.613222
C     -0.047269    0.183485    0.402045
C      2.697745   -1.466975    0.555385
C     -4.119622    0.640051   -0.294152
C      4.156098   -1.193509    0.582157
O      3.998856    4.011820    3.676522
O     -9.587215    0.207267   -1.754911
O      6.537709   -1.220547   -4.610872
O     -8.623360    2.547544   -0.632279
O      5.387437    1.058598   -3.583137
O      0.278361    1.011692    3.084248
O     -0.032044   -2.503345    2.794689
O     -2.976414   -0.392248   -2.088484
O      0.770048    1.063500   -0.241851
O      2.502397   -2.872095    0.619401
O     -3.659660   -0.496375    0.391309
O      4.553420   -0.034815    1.266311
H     -5.396726   -1.504194   -1.415911
H      5.372549   -3.291751   -0.708601
H     -7.803244   -1.631707   -2.034900
H      6.395393   -3.266764   -2.962735
H     -6.029192    2.458464   -0.051606
H      4.373876    0.792039   -1.191535
H      1.536966    3.176609    3.923787
H      5.331512    2.200130    2.284263
H     -1.116746    1.416048   -1.709766
H     -2.045928    2.281305   -0.409499
H     -2.573312   -2.172991    2.067800
H     -3.561129    1.609211   -2.174033
H      1.935159   -1.518878    2.505519
H      2.301877   -1.198028   -0.452261
H     -4.014210    1.546984    0.347229
H      4.625868   -2.036561    1.181370
H      4.961671    4.285104    3.550145
H    -10.196809    0.999429   -1.596680
H      6.519061   -0.355568   -5.135153
H     -8.235310    3.389124   -0.218758
H      4.960176    1.885724   -3.188745
H     -0.284615    1.664626    3.609892
H     -0.635187   -3.158918    3.275037
H     -2.960510   -0.253663   -3.080629
H      1.756436    1.079444   -0.089997
H      3.139191   -3.267819    1.261550
