31

C      3.515600   -0.662968    2.016054
C      4.057844    0.568243    1.386098
C     -3.199451   -1.837151    1.003523
C     -3.299660   -0.453792    0.943177
C      2.112216   -0.164822   -0.080992
C      1.030894    0.100831   -0.546223
C     -1.194284   -1.709782   -0.319092
C      3.417207   -0.477135    0.504753
C     -2.148166   -2.470764    0.374012
C     -1.285434   -0.343416   -0.384384
C     -2.343724    0.282511    0.251272
C     -1.646024    2.419251   -0.348657
C     -0.301399    0.444231   -1.117915
C     -0.241589    0.042315   -2.604629
Cl    -2.026872   -4.224036    0.454351
F     -1.409971    0.303462   -3.248835
F      0.178855   -1.264037   -2.705005
F      0.811375    0.812945   -3.116725
N     -2.495947    1.689064    0.248024
N     -0.542399    1.860843   -1.014141
O     -1.861078    3.814667   -0.312256
H      2.585156   -0.533932    2.605843
H      4.205326   -1.428152    2.416124
H      3.508123    1.517583    1.546607
H      5.126199    0.714909    1.192749
H     -3.961083   -2.388796    1.551710
H     -4.129599    0.027951    1.441820
H     -0.415611   -2.286679   -0.771883
H      4.066514   -1.102608   -0.133840
H      0.146203    2.501264   -1.460824
H     -2.259223    4.248001    0.535850
