68

C      6.455387   -0.565861   -0.836297
C     -5.261377    2.541746   -1.169587
C      7.496584   -1.427181   -0.469784
C     -6.404105    3.209756   -0.794932
C      6.422133    0.357033    1.331865
C     -5.846638    0.733836    0.228640
C     -2.355730   -3.652086    1.055002
C     -4.113692   -2.897950   -0.297065
C      3.297762   -0.318560   -1.555000
C      1.423867    1.271068    1.208113
C      5.914847    0.326762    0.057996
C     -4.946725    1.280763   -0.668450
C     -3.592332   -3.866296    0.532017
C      2.181463    0.099829   -0.678140
C      8.005801   -1.397075    0.808255
C     -7.291896    2.649790    0.101524
C      7.458070   -0.499039    1.698720
C     -6.998740    1.399913    0.610542
C     -1.569380   -2.504572    0.806213
C      0.129264    0.902317    0.977622
C      4.199367    0.923047   -1.654368
C      2.484764    0.887948    0.397926
C     -3.401653   -1.772209   -0.571880
C     -2.106589   -1.556641   -0.018994
C     -0.191562    0.102612   -0.113073
C     -1.536239   -0.292072   -0.451489
C      0.875059   -0.288772   -0.934493
C     -2.565505    0.794144   -0.128735
C      4.825450    1.222317   -0.333070
C     -3.716773    0.607269   -1.097287
O     -4.334899   -5.030752    0.813511
O      9.051650   -2.257690    1.187441
O     -8.458985    3.291251    0.507113
O      7.990643   -0.489138    2.983144
O     -7.855427    0.776761    1.522148
O     -0.345743   -2.418290    1.394339
O     -0.914731    1.295673    1.802706
O      3.293519    1.981842   -1.912328
O      0.609703   -1.091079   -2.035630
O     -2.065354    2.073181   -0.371784
O      3.791268    1.278143    0.655992
O     -3.905827   -0.759790   -1.417479
H      6.064510   -0.598301   -1.839815
H     -4.582724    3.017112   -1.881328
H      7.908779   -2.128783   -1.202652
H     -6.653113    4.189891   -1.181506
H      6.002403    1.056567    2.041722
H     -5.599807   -0.254036    0.621115
H     -1.905063   -4.382027    1.709851
H     -5.117675   -3.044542   -0.739268
H      2.928202   -0.526863   -2.578820
H      3.845657   -1.182579   -1.142625
H      1.669344    1.906966    2.076859
H      4.870231    0.899891   -2.506288
H     -1.581664   -0.318117   -1.595459
H     -2.935087    0.618649    0.875334
H      5.209913    2.283842   -0.387780
H     -3.379622    1.081963   -2.064643
H     -3.919465   -5.703839    1.417598
H      9.426745   -2.902033    0.505970
H     -8.710422    4.202637    0.160632
H      7.605993    0.159045    3.651590
H     -8.685815    1.252272    1.800069
H      0.333480   -1.760583    1.364705
H     -0.819262    1.867459    2.614856
H      3.558314    2.803897   -1.400688
H     -0.229019   -1.464760   -2.361407
H     -1.431529    2.004327   -1.128989
