31

C      4.443578   -0.642538   -0.432732
C      4.060765   -0.331278   -1.860970
C     -2.922617    2.756994    0.743660
C     -3.001998    1.645487    1.531250
C      2.035279   -0.003431   -0.437760
C      0.889484   -0.319518   -0.258776
C     -1.252591    1.618879   -0.572155
C      3.431142    0.379176   -0.681350
C     -2.035053    2.720477   -0.308494
C     -1.317812    0.471590    0.218634
C     -2.203288    0.524464    1.261007
C     -1.588261   -1.603358    2.005007
C     -0.529609   -0.712658   -0.058583
C     -1.063935   -1.303704   -1.382796
Cl    -1.885712    4.131315   -1.364539
F     -0.986545   -0.388657   -2.391991
F     -0.182302   -2.334197   -1.700238
F     -2.298174   -1.844457   -1.193444
N     -2.336552   -0.569153    2.186580
N     -0.650043   -1.708575    0.949415
O     -1.769579   -2.630325    2.936711
H      4.232728   -1.674851   -0.122778
H      5.486528   -0.311595   -0.192510
H      3.442912   -1.087335   -2.418200
H      4.733350    0.232510   -2.512789
H     -3.499241    3.655463    0.882846
H     -3.695975    1.666277    2.359121
H     -0.549997    1.587861   -1.394329
H      3.721314    1.437596   -0.553482
H     -0.048887   -2.582298    0.970467
H     -2.658907   -2.780160    3.413871
