45

C      1.669018   -2.666167   -1.223371
C     -0.618426    0.021203   -1.659935
C      4.329957   -2.429148    0.186747
C      2.556932   -1.467104   -1.338358
C      0.578298   -0.856656   -1.949009
C      5.008609   -0.612386    1.181275
C      5.632263    0.343154    1.960983
C      4.008762   -0.303959    0.277227
C      4.243992    1.969307    0.930929
N      6.657735    0.004323    2.883970
N      3.861986    3.213523    0.797283
N      5.183010   -1.933543    1.100710
N      5.210917    1.610417    1.793815
N      3.656759    0.994188    0.182584
N      3.591092   -1.436111   -0.337488
O     -7.405032   -1.082816    2.436525
O     -9.078348    0.607638    0.957357
O     -6.681380    1.307212    1.746616
O     -3.585798    1.177764   -3.433636
O     -2.898339    1.418282   -0.924813
O     -4.539378   -0.162054    1.244841
O     -5.289516    1.596853   -0.539651
O      0.395595   -2.146779   -1.455912
O     -1.744455   -0.532375   -2.264786
O      1.689377   -0.406369   -1.230821
O     -6.838065   -0.442827   -0.223913
O     -4.348827   -0.671739   -1.486620
P     -7.490041    0.111808    1.256712
P     -3.124828    0.375583   -1.997838
P     -5.238668    0.087799   -0.293373
H      1.705781   -3.167697   -0.242211
H      1.906001   -3.433779   -2.014315
H     -0.407681    1.053336   -1.997236
H     -0.741328    0.057634   -0.557958
H      4.201162   -3.464542   -0.131826
H      2.965369   -1.458748   -2.379224
H      0.791061   -0.951588   -3.024229
H      7.402456   -0.705978    2.726371
H      6.671896    0.504769    3.797535
H      4.352518    3.907503    1.399733
H      5.678043    2.346968    2.381741
H     -7.338000   -0.617841    3.324421
H     -9.068060    1.579047    0.685479
H     -3.315136    0.586923   -4.167157
H     -4.197282    0.690460    1.620825
