82

C      6.478571   -2.064567   -0.159361
C     -4.514043   -3.310351    0.522881
C     -2.763739    3.951578    1.034992
C      7.421855   -2.975341    0.332823
C     -5.211932   -4.425309    0.923634
C     -4.000648    4.423270    1.509075
C      4.868860   -2.952860    1.342113
C     -2.782095   -4.648655   -0.366384
C      4.224345   -1.084794   -0.141772
C     -2.604392   -2.145977   -0.570455
C      1.384274    2.714323   -1.023078
C     -3.905295    2.975527   -0.801583
C      1.116513    4.425590   -2.733536
C     -1.609140    4.562118   -2.232109
C      5.190127   -2.066870    0.363437
C     -3.275192   -3.379946   -0.136882
C     -2.697401    3.224466   -0.120133
C      0.571075    3.593237   -1.819120
C     -0.794102    3.648873   -1.560484
C      0.872932    1.986285   -0.055504
C      7.079713   -3.874739    1.333864
C     -4.696613   -5.680869    0.681769
C     -5.166642    4.162352    0.819746
C      5.800904   -3.857768    1.834339
C     -3.486065   -5.761198    0.039329
C     -5.119125    3.431792   -0.347460
C      0.342439    5.336300   -3.418300
C     -1.022781    5.392801   -3.153650
C      4.101815    0.154415    0.804266
C     -1.691351   -1.612599    0.460263
C     -1.477240    2.673017   -0.701471
C     -0.542359    2.034681    0.281946
C      5.387528    0.807939    0.998767
C     -0.625306   -2.563954    0.807132
C      1.803339    1.052104    0.674531
C     -1.139495    0.755550    0.781702
O      8.034702   -4.761086    1.798481
O     -5.366534   -6.837396    1.067561
O     -6.357281    4.653946    1.339756
O      5.410617   -4.738056    2.841710
O     -2.929073   -7.033248   -0.222236
O     -6.272761    3.156035   -1.059983
O      0.971341    6.163662   -4.355796
O     -1.776136    6.314176   -3.850057
O      6.359210    0.137180    1.459565
O      5.662090    2.137840    0.719732
O     -0.974186   -3.641040    1.382720
O      0.690718   -2.354423    0.546851
O      1.431420    0.343232    1.623222
O     -1.723586    0.680170    1.887543
O      3.117602    0.974231    0.268858
O     -1.075351   -0.387162    0.030860
H      6.718529   -1.369725   -0.921973
H     -4.934302   -2.328823    0.723108
H     -1.872074    4.175776    1.579809
H      8.420471   -2.960422   -0.089884
H     -6.169180   -4.387522    1.431338
H     -4.011576    4.993437    2.425960
H      3.864047   -2.997464    1.784912
H     -1.830553   -4.754282   -0.890462
H      4.417714   -0.691120   -1.129644
H      3.216660   -1.594605   -0.090733
H     -3.447507   -1.407438   -0.767293
H     -2.068080   -2.361158   -1.522648
H      2.474081    2.626184   -1.199715
H     -3.857061    2.409536   -1.711430
H      2.183210    4.366033   -2.925205
H     -2.660700    4.628848   -2.050507
H      3.737129   -0.312521    1.730177
H     -2.247485   -1.412736    1.406706
H     -1.780426    1.836493   -1.465661
H     -0.572332    2.773516    1.172637
H      7.832042   -5.413615    2.507634
H     -6.243156   -6.875666    1.532965
H     -6.375916    5.182664    2.185962
H      6.008568   -5.422168    3.272584
H     -3.476260   -7.853891    0.031102
H     -7.148344    3.500614   -0.696903
H      1.964013    6.070678   -4.463713
H     -2.776024    6.359603   -3.658995
H      6.443992    2.351016    0.080053
H      1.468392   -2.839725    1.000092
