82

C     -5.649060    3.043291    0.625574
C      2.776298    4.774441   -0.463175
C      2.771021   -5.032742   -0.874462
C     -6.458036    4.059912    0.164380
C      3.596348    5.873945   -0.328797
C      2.832559   -6.000497   -1.873120
C     -3.743534    4.065285   -0.363749
C      3.581260    3.902791    1.593080
C     -3.456949    1.910674    0.882956
C      1.862446    2.617186    0.291627
C     -0.946776   -2.321750    1.522338
C      0.541682   -4.597114   -1.496431
C     -0.774792   -4.034029    3.299297
C      1.644594   -4.845417    2.273412
C     -4.278601    3.008429    0.381586
C      2.745667    3.765770    0.485848
C      1.612296   -4.315304   -0.675743
C     -0.242787   -3.426441    2.141407
C      0.955471   -3.829720    1.631942
C     -0.459736   -1.681788    0.481902
C     -5.923609    5.083999   -0.561143
C      4.399742    5.974229    0.766605
C      1.750722   -6.269212   -2.685305
C     -4.552963    5.079141   -0.823141
C      4.404846    4.996868    1.738416
C      0.585936   -5.556526   -2.494671
C     -0.094592   -5.040272    3.934764
C      1.104146   -5.429262    3.411915
C     -3.289150    0.824349   -0.121662
C      2.505918    1.450788   -0.414613
C      1.489153   -3.254157    0.396361
C      0.834158   -2.030786   -0.121545
C     -4.596559    0.266321   -0.495849
C      2.993769    1.800980   -1.769616
C     -1.289912   -0.604060   -0.067871
C      1.779038   -0.858311    0.002312
O     -6.672746    6.123759   -1.047901
O      5.242787    7.091234    0.917854
O      1.846216   -7.251329   -3.682755
O     -4.023171    6.139315   -1.569435
O      5.250370    5.165435    2.829138
O     -0.505190   -5.822228   -3.308138
O     -0.654300   -5.606504    5.066551
O      1.783684   -6.455442    4.073595
O     -4.868209   -0.929395   -0.227734
O     -5.578503    0.988982   -1.145405
O      3.830809    2.708066   -1.973232
O      2.539049    1.127477   -2.912421
O     -0.870807    0.020646   -1.062419
O      2.820486   -1.050337    0.679226
O     -2.503737   -0.245556    0.453248
O      1.599308    0.367820   -0.548651
H     -6.129133    2.256269    1.202568
H      2.157501    4.767324   -1.365089
H      3.627244   -4.832517   -0.246555
H     -7.525988    4.070735    0.364322
H      3.622803    6.672256   -1.077000
H      3.759821   -6.555324   -2.011836
H     -2.679055    4.049748   -0.560193
H      3.570502    3.125722    2.343399
H     -2.465571    2.310789    1.189075
H     -3.932921    1.441821    1.792591
H      1.529355    2.264902    1.285967
H      0.970732    2.912435   -0.314545
H     -1.923974   -2.024458    1.956010
H     -0.368370   -4.037918   -1.345425
H     -1.735467   -3.669307    3.655072
H      2.592875   -5.173252    1.884583
H     -2.733961    1.239923   -0.994186
H      3.380372    1.159351    0.195258
H      2.571429   -3.003047    0.630300
H      0.706620   -2.145795   -1.244171
H     -7.652940    6.239874   -0.928835
H      5.255023    7.816082    0.221105
H      2.714164   -7.750356   -3.790521
H     -3.032192    6.133071   -1.757212
H      5.328534    4.513190    3.588097
H     -0.447185   -6.526952   -4.029118
H     -0.131066   -6.349096    5.518460
H      2.677992   -6.815675    3.767255
H     -6.419754    0.526079   -1.508528
H      2.466551    1.641174   -3.801354
