30

C      1.127291    0.413081   -0.244419
C     -3.817477    1.598645    0.174153
C     -1.858364   -1.762700   -0.107032
C      2.489389    0.428799    0.031759
C     -1.033477   -0.550360   -0.485469
C     -2.870699    0.712760   -0.590722
C      3.071908   -0.757301    0.399440
C      3.257105    1.645519   -0.065609
C      0.964143   -1.813097    0.187904
N      4.333953   -0.844458    0.676642
N      4.477889    1.804978    0.150851
N      2.275944   -1.847494    0.464231
N      0.342734   -0.668134   -0.179154
O     -4.100869    1.086511    1.438876
O      2.546884    2.814272   -0.455437
O      0.230084   -2.970485    0.279509
O     -1.648229    0.561772    0.069647
S     -3.517895   -1.004123   -0.396487
H      0.677714    1.364336   -0.535710
H     -4.785572    1.584857   -0.384605
H     -3.477505    2.630388    0.268754
H     -1.791753   -2.582497   -0.819240
H     -1.826927   -2.015600    0.945935
H     -1.153532   -0.438116   -1.603333
H     -2.783840    0.967545   -1.643287
H      4.799977   -1.712678    0.953916
H      5.207864    1.192509    0.428310
H     -4.747623    0.333722    1.402415
H      2.943804    3.708322   -0.204454
H      0.667077   -3.880972    0.393478
