93

C      2.867592   -3.330631   -1.334639
C      2.412706   -2.254198   -3.456055
C     -3.941258    3.388707    2.836363
C     -4.815168    2.423875    2.379491
C     -2.594967    3.357748    2.560368
C     -4.299441    1.395173    1.617125
C      5.854887    2.314736   -0.179746
C      4.914309    2.018248    1.945248
C     -5.040515   -1.393992   -1.476066
C     -4.407728   -2.834129    0.287255
C      4.880220    1.545749   -0.754290
C      3.919865    1.234121    1.365460
C     -4.145138   -0.449276   -0.996176
C     -3.527505   -1.869082    0.734484
C      1.063090    1.192920    0.466753
C     -0.670335   -0.796257   -0.488044
C      1.722739   -2.708698   -2.166640
C      5.897738    2.568328    1.165207
C     -5.180384   -2.607254   -0.831009
C      3.869531    0.976380    0.019252
C     -3.366647   -0.655498    0.115392
C     -2.105849    2.321713    1.798332
C      1.531994    0.148175   -0.295771
C      0.695677   -0.865532   -0.791768
C     -0.294531    1.289422    0.787282
C     -2.954925    1.355652    1.335943
C     -1.157075    0.236888    0.271602
Cl     7.160191    3.560108    1.879328
Cl    -6.311663   -3.818651   -1.425323
N      1.077723   -1.789410   -1.455721
N      2.913839    0.154632   -0.610640
N     -0.762971    2.303836    1.531436
N     -2.465288    0.325913    0.577846
C     -2.155700    1.866389    0.770077
C      4.337532    1.689499    0.124744
C     -3.205813    0.842743    0.451180
C      2.873766    1.371357    0.240784
C     -1.135035   -0.719435   -0.969292
C      0.379688   -0.928697   -1.192099
C     -3.694582   -1.603644    0.595106
C      3.181758   -1.067188   -0.207594
C     -2.705500   -0.526312    0.878310
C      2.453932    0.179591   -0.597081
N     -1.376809   -0.729971    0.440716
N      1.046480    0.118269   -0.555156
O     -3.802062   -1.799191   -0.766376
O      2.873996   -1.447154    1.110281
H      3.007426   -4.395492   -1.621885
H      3.821881   -2.815019   -1.557397
H      2.611909   -3.306923   -0.256745
H      2.413044   -3.105601   -4.157738
H      1.918902   -1.374976   -3.892045
H      3.482490   -1.986883   -3.266372
H     -4.336539    4.216051    3.445811
H     -5.874980    2.436057    2.588928
H     -1.917795    4.146979    2.941255
H     -4.945536    0.594045    1.222623
H      6.652422    2.763832   -0.791234
H      4.923200    2.202865    3.017270
H     -5.637164   -1.186604   -2.361232
H     -4.504707   -3.795026    0.815372
H      4.910254    1.387085   -1.831649
H      3.199830    0.822113    2.053627
H     -4.120922    0.472485   -1.588781
H     -2.962740   -2.159042    1.635769
H      1.681188    2.000608    0.839847
H     -1.364271   -1.560405   -0.850091
H      1.059447   -3.601091   -2.429989
H      3.241949   -0.494772   -1.367626
H     -1.825892    2.380830   -0.157988
H     -2.556425    2.653154    1.442689
H     -1.286897    1.393184    1.311129
H      5.004706    0.885243    0.452672
H      4.596189    2.030615   -0.883040
H      4.516146    2.533331    0.852951
H     -4.151376    1.089582    0.945591
H     -3.342533    0.792358   -0.664986
H      2.330579    2.255834   -0.205099
H      2.527187    1.310154    1.278314
H     -1.409469    0.283532   -1.380144
H     -1.681258   -1.463805   -1.548455
H      0.530455   -0.868809   -2.294920
H      0.566227   -1.948632   -0.804714
H     -4.720992   -1.290173    0.941768
H     -3.495261   -2.542706    1.151102
H      2.989696   -1.930586   -0.835046
H      4.279915   -0.898045   -0.212296
H     -2.653641   -0.456844    2.014412
H      2.764747    0.423132   -1.643236
H     -1.044867   -1.653606    0.849860
H      0.546013    0.983775   -0.357869
H     -4.468858   -2.513131   -0.950214
H      2.913962   -0.694643    1.731828
