30

C     -1.011504    0.187101   -0.302453
C      3.695610    1.701309    0.145071
C      2.051862   -1.876978   -0.353425
C     -2.369130    0.125316   -0.115570
C      1.162099   -0.696834   -0.615508
C      2.871498    0.697450   -0.592166
C     -2.957561   -1.114264   -0.052058
C     -3.163928    1.342242    0.011918
C     -0.850689   -2.080052   -0.357375
N     -4.248518   -1.199936    0.125260
N     -4.437808    1.251955    0.186811
N     -2.178472   -2.187062   -0.175279
N     -0.226946   -0.903349   -0.426682
O      2.951971    2.860841    0.278502
O     -2.593980    2.602914   -0.048734
O     -0.104668   -3.225098   -0.477038
O      1.676366    0.393204    0.085178
S      3.654810   -0.968579   -0.550506
H     -0.574208    1.187602   -0.348523
H      4.569077    1.948479   -0.491265
H      4.094893    1.326237    1.097790
H      2.066595   -2.235405    0.664092
H      2.045209   -2.612752   -1.150107
H      1.318946   -0.441550   -1.697457
H      2.727120    0.957121   -1.635575
H     -4.690948   -2.141918    0.172871
H     -5.053355    2.086029    0.283981
H      3.315229    3.614857   -0.259637
H     -3.220990    3.398127   -0.184843
H     -0.518580   -3.997006   -0.995403
