55

C     -4.274361    0.994179    2.823472
C      5.756813    2.436547    1.868155
C     -5.709736    0.676413    2.628936
C     -6.052237   -0.491174    1.777605
C     -5.663769   -0.476527    0.354215
C     -4.204067   -0.370960    0.035353
C     -3.961084   -0.407028   -1.465322
C     -2.488483   -0.300907   -1.790160
C     -1.674594   -1.395806   -1.210527
C     -0.228821   -1.232198   -1.596950
C      0.391781    0.047160   -1.119562
C      1.859657    0.173946   -1.537099
C      2.655704   -0.949006   -0.961858
C      4.097682   -0.901792   -1.328082
C      5.240524    1.876376    0.791665
C      4.814153    0.300463   -0.863917
C      4.774839    0.477007    0.656231
C      5.660675   -0.487914    1.326672
C      5.005331    2.497832   -0.503089
O      6.685437   -0.087670    1.911838
O      5.366996   -1.833110    1.313209
O      5.320166    3.686809   -0.798483
O      4.378965    1.543350   -1.331716
H     -3.645185    0.108280    2.631808
H     -4.132523    1.245009    3.919139
H     -3.927302    1.922966    2.309324
H      6.058676    3.474350    1.833241
H      5.897945    1.912579    2.800614
H     -6.201588    1.590465    2.156110
H     -6.182074    0.510896    3.633582
H     -7.189248   -0.571837    1.825141
H     -5.652018   -1.432354    2.285758
H     -6.043643   -1.420148   -0.139198
H     -6.179989    0.360119   -0.212150
H     -3.613616   -1.099878    0.576369
H     -3.867976    0.655502    0.368804
H     -4.471971    0.441693   -1.955610
H     -4.384498   -1.344024   -1.856586
H     -2.079252    0.679833   -1.420418
H     -2.375547   -0.292106   -2.886986
H     -1.692377   -1.394867   -0.090192
H     -1.986762   -2.395392   -1.603160
H      0.337888   -2.071839   -1.129376
H     -0.085967   -1.348572   -2.704243
H     -0.146043    0.948938   -1.506856
H      0.394969    0.119555   -0.013380
H      2.225993    1.184934   -1.302425
H      1.839298    0.059549   -2.651246
H      2.267943   -1.915088   -1.422283
H      2.543201   -1.015882    0.151657
H      4.657114   -1.807387   -0.986748
H      4.205978   -0.935833   -2.460672
H      5.926687    0.235495   -1.081594
H      3.726905    0.386157    1.029655
H      6.023407   -2.567104    1.561979
