53

C     -3.571255    3.554118   -1.283697
C      5.445795    0.561682   -0.729659
C      4.924232   -2.373148   -0.612182
C     -2.431203   -2.013650    1.996923
C     -3.756078   -2.412097    0.004252
C     -3.804178    2.832126    0.004971
C     -2.893852    1.602906    0.170824
C      0.017449   -2.693840   -0.028327
C     -1.403765   -3.080403    0.045151
C     -1.102954    3.349449    0.283258
C      4.381894   -0.054877    0.159264
C      3.892757   -1.303522   -0.523005
C     -1.483715    2.022286    0.207010
C      0.262504   -1.233334    0.044081
C      0.253530    3.675825    0.306898
C     -0.462647    1.072731    0.160024
C      1.846526    0.490996    0.140599
C      3.249678    0.932592    0.168879
C      1.600027   -0.858416    0.068971
C     -0.743482   -0.280765    0.089011
C      0.845602    1.454354    0.186917
C     -2.351187   -2.022251    0.470882
O      0.537731    4.915479    0.376676
O      3.470949    2.169489    0.201012
O      2.655454   -1.751542    0.026161
O      1.152435    2.731476    0.258367
O     -2.041494   -0.719954    0.061488
H     -4.418902    3.326688   -1.991017
H     -2.596242    3.345749   -1.771562
H     -3.660060    4.639277   -1.099381
H      4.961733    0.729357   -1.718585
H      6.367330   -0.042744   -0.789774
H      5.648834    1.578758   -0.284939
H      5.769587   -1.942686   -1.225714
H      4.511624   -3.185852   -1.265931
H      5.327096   -2.731078    0.333237
H     -2.558478   -3.056770    2.337548
H     -1.560318   -1.498523    2.397746
H     -3.353015   -1.435133    2.278614
H     -4.335177   -1.558460   -0.361378
H     -4.332084   -2.897855    0.814851
H     -3.673055   -3.204408   -0.799144
H     -3.711122    3.508564    0.901661
H     -4.874603    2.513500    0.033743
H     -3.129527    1.011815   -0.753064
H     -3.209754    1.116554    1.106072
H      0.452706   -3.052024   -0.983510
H      0.647113   -3.147959    0.788786
H     -1.494276   -3.936425    0.774959
H     -1.784035   -3.514747   -0.920206
H     -1.862751    4.094318    0.338550
H      4.720285   -0.230179    1.188793
H      3.656336   -0.997449   -1.585105
