38

C      5.068159    1.205989   -0.489800
C     -5.204242   -1.032793   -0.056182
C      4.044735    0.225939   -1.027707
C     -3.687270   -1.103653   -0.052270
C      0.647406   -0.167523    0.398622
C     -0.758654   -0.393261   -0.151285
C      3.267005   -0.242132    1.288697
C     -3.344691    1.383273   -0.003242
C      2.877053    0.213523   -0.087012
C     -3.027085    0.043366    0.618876
N      1.672728   -0.370812   -0.605128
N     -1.656153   -0.148007    0.904492
O      3.470063   -1.619111    1.338402
O     -2.654944    1.510255   -1.176839
H      6.000399    0.682055   -0.274058
H      4.663612    1.756270    0.372690
H      5.267614    1.939130   -1.319611
H     -5.601301   -0.086466   -0.431536
H     -5.557247   -1.871855   -0.719367
H     -5.593828   -1.210859    0.981626
H      3.666637    0.528846   -2.037567
H      4.508142   -0.773011   -1.151408
H     -3.326781   -1.173217   -1.113924
H     -3.416207   -2.031402    0.525284
H      0.850657   -0.886408    1.221489
H      0.751763    0.846045    0.802653
H     -0.851501    0.134726   -1.080196
H     -0.837852   -1.504339   -0.384547
H      2.478811    0.009399    2.044013
H      4.172808    0.283092    1.657648
H     -4.428118    1.488117   -0.180545
H     -3.063268    2.162566    0.749872
H      2.605578    1.327226    0.025228
H     -3.534961    0.113562    1.651255
H      1.434513    0.001248   -1.526833
H     -1.524371   -0.720933    1.730789
H      3.765009   -1.946492    0.447374
H     -3.144218    1.427646   -2.006317
