104

C      4.255830    2.571440    0.958919
C      4.920077    1.040204    2.723443
C      6.539891    1.676339    1.012817
C     -1.261487   -4.547765    0.142467
C     -2.876978   -4.587178    2.053188
C     -3.114176   -6.102268    0.138328
C      7.562743   -2.819772    1.443774
C     -7.486878   -5.165206   -0.150260
C      4.851053    1.848623   -3.917714
C     -4.169708    8.142661   -0.930662
C      4.280392    2.466751   -2.824455
C      4.218296    0.741682   -4.434164
C     -4.694757    7.702397    0.279455
C     -3.387030    7.299359   -1.706020
C      3.107092    1.987553   -2.264647
C      3.044811    0.262858   -3.873708
C     -4.405313    6.405758    0.668102
C     -3.125488    6.023691   -1.283348
C     -2.930025    2.655724    2.095676
C     -2.855941    1.893065   -0.109707
C     -3.217110    3.923473    1.659975
C     -3.145414    3.170447   -0.557737
C      1.213295    0.348023   -2.188029
C     -2.428435    0.253241    1.770012
C     -0.471916   -0.201575    0.324477
C      2.465071    0.880694   -2.772783
C     -2.734937    1.575624    1.226308
C     -3.632340    5.556531   -0.086281
C     -3.327041    4.189851    0.324002
C      1.501951   -0.741690   -1.144446
C      0.113474   -1.203086   -0.626307
C      4.672283    0.142278    0.411128
C     -3.542859   -3.748182   -0.227680
C      3.238231   -0.262836    0.625355
C     -3.182766   -2.309329   -0.059817
C      5.607249   -2.058266    0.174547
C     -5.838340   -3.470372    0.532794
C      5.068567    1.331335    1.234766
C     -2.691708   -4.688005    0.562670
N      2.408924   -0.491714   -0.191687
N      5.511147   -0.968580    0.823756
N     -4.937961   -4.024382   -0.147574
N     -2.218800   -1.886101    0.612873
N     -1.730742   -0.642720    0.886889
O     -0.752412   -1.425646   -1.671405
O      2.915788   -0.365528    2.011688
O     -3.991235   -1.376071   -0.708830
O      4.893307   -2.236428   -0.989338
O     -5.539887   -2.413212    1.372693
O      6.426658   -3.064503    0.634499
O     -7.145419   -3.921537    0.442246
H      3.169359    2.359020    0.922211
H      4.487195    3.333275    1.737815
H      4.604316    3.003922    0.000485
H      3.945844    1.425534    3.090658
H      5.687187    1.642621    3.251126
H      5.068295   -0.025639    2.948849
H      6.651360    2.757264    0.851373
H      7.168890    1.407116    1.878829
H      6.943864    1.155912    0.120115
H     -1.118893   -3.989021   -0.803172
H     -0.760956   -5.527428   -0.016082
H     -0.711028   -4.031783    0.959207
H     -3.861087   -4.915588    2.384618
H     -2.614948   -3.547153    2.385811
H     -2.098128   -5.245140    2.517474
H     -2.239069   -6.779988    0.243829
H     -3.380472   -6.103080   -0.957429
H     -3.930266   -6.483453    0.760644
H      8.055286   -3.761640    1.686860
H      7.280966   -2.248879    2.337377
H      8.283045   -2.229977    0.812956
H     -7.178634   -5.225843   -1.205388
H     -8.591422   -5.260274   -0.114375
H     -7.076055   -5.963567    0.479408
H      5.772565    2.251859   -4.331744
H     -4.389917    9.162231   -1.248924
H      4.765270    3.332757   -2.412186
H      4.648695    0.243987   -5.288763
H     -5.305768    8.354654    0.889342
H     -3.013727    7.711062   -2.633587
H      2.630627    2.454845   -1.407409
H      2.533216   -0.602900   -4.262789
H     -4.817574    6.071053    1.611120
H     -2.520615    5.371426   -1.882269
H     -2.843709    2.450495    3.144745
H     -2.726392    1.111143   -0.847329
H     -3.360014    4.728209    2.375042
H     -3.234146    3.384569   -1.628614
H      0.667496    1.196314   -1.732833
H      0.560202   -0.076800   -2.998972
H     -1.843645    0.432544    2.721436
H     -3.382448   -0.195931    2.119327
H      0.259677   -0.045644    1.187676
H     -0.505445    0.773049   -0.162813
H      1.873831   -1.604899   -1.812767
H      0.326569   -2.142968   -0.069544
H      4.864966    0.318066   -0.666870
H     -3.266373   -3.956144   -1.311906
H     -1.213697   -0.563063   -1.882021
H      2.163092   -0.925972    2.346598
H     -4.337763   -0.531672   -0.222806
H      4.619945   -1.471689   -1.596222
H     -4.688591   -2.344446    1.875218
