43

C      6.199746    1.009361   -0.642859
C      4.955371    0.535077    0.170094
C      5.145347   -0.880954    0.550418
C     -4.805862   -0.624149   -1.394282
C     -3.532887   -0.906425   -1.652917
C      4.067695   -1.452433    1.392406
C     -3.560729    0.310473    0.333592
C     -6.054003    0.271477    0.565782
C     -1.190191   -1.966149   -0.463301
C     -4.899613    0.469817   -0.388384
C     -2.650796   -0.015847   -0.833336
C      0.630126   -0.947094    0.242267
C     -0.329058   -0.016025   -0.025519
C      1.889286   -0.511008    0.711281
C      1.096752    1.730311    0.594305
N      1.326443    3.011834    0.765014
N      0.090833   -2.136267   -0.029625
N     -0.084526    1.281534    0.151489
N      2.032126    0.816608    0.855036
N     -1.438066   -0.651682   -0.456428
O     -5.925585   -0.918208    1.265800
O      2.784515   -1.476356    0.960705
H      5.903335    1.814611   -1.338142
H      6.594796    0.175652   -1.229377
H      6.985538    1.352284    0.041321
H      4.759175    1.201076    1.014962
H      4.141276    0.550116   -0.615150
H      5.250337   -1.513452   -0.376814
H      6.114754   -0.970054    1.122515
H     -5.659428   -1.115832   -1.847043
H     -3.227621   -1.669508   -2.354396
H      4.330454   -2.547960    1.657809
H      4.167635   -0.890051    2.402372
H     -3.271050    1.237144    0.849773
H     -3.665100   -0.565717    1.004149
H     -6.978264    0.276882   -0.049105
H     -6.091259    1.161112    1.219516
H     -1.875189   -2.750517   -0.757214
H     -4.987200    1.463350   -0.864124
H     -2.472517    0.911972   -1.413617
H      0.533070    3.645218    0.533831
H     -0.833142    2.006912   -0.057595
H     -5.466525   -0.707136    2.119367
