34

C      5.669333    1.377950    0.266864
C     -2.991070   -1.223580    1.031728
C     -1.677782   -1.157489    0.942529
C     -2.516096    0.515194   -0.432583
C     -4.825805    0.291086    0.333436
C     -0.012459    1.679552    0.067883
C     -3.628919   -0.497766   -0.119999
C     -1.315035   -0.385364   -0.271875
C      2.054613    0.867308    0.043422
C      1.140578   -0.177134   -0.139200
C      3.410604    0.614637    0.066022
C      2.974611   -1.672043   -0.267531
N      3.350821   -2.897582   -0.420450
N      1.312618    1.984196    0.165944
N      1.654969   -1.411661   -0.287529
N      3.827325   -0.659219   -0.091864
N     -0.093794    0.351829   -0.118539
O     -5.386461    0.944497   -0.749355
O      4.275833    1.672799    0.248473
H      5.911624    1.002228   -0.763882
H      6.286207    2.243531    0.533859
H      5.815784    0.513036    0.942406
H     -3.534115   -1.724853    1.815908
H     -0.930118   -1.576530    1.612450
H     -2.501732    1.241233    0.380805
H     -2.627258    0.930491   -1.439118
H     -4.484304    1.005518    1.104364
H     -5.562330   -0.447502    0.736059
H     -0.799779    2.420539    0.136681
H     -3.820473   -1.174120   -0.955457
H     -1.240054   -1.123203   -1.099309
H      4.345452   -3.182085   -0.417533
H      0.948906   -2.188396   -0.424459
H     -5.031694    1.842901   -0.910730
