66

C      0.734006   -0.363961   -2.759366
C     -0.118599   -1.099714   -0.690271
C     -2.850515    1.377894    0.871405
C     -2.952154    3.414758   -0.315571
C      6.384469   -0.145381    1.057966
C      5.216225    1.923887    1.287723
C     -4.880558   -4.439662   -0.415517
C     -2.535080   -4.538710   -0.739833
C     -3.878866   -1.781144   -2.834575
C     -0.244604   -1.054364   -2.063752
C     -2.866109    2.039384   -0.361654
C      5.253736    0.623892    0.849209
C     -3.661164   -5.013370   -0.143136
C     -3.845252   -2.910499   -1.886841
C     -4.991678   -3.363959   -1.304517
C     -2.917587    2.066616    2.062137
C     -3.020103    4.117857    0.874446
C      7.481188    0.377246    1.703906
C      6.330517    2.463390    1.946973
C      1.781272    0.246339   -2.102925
C      0.927760   -0.491361   -0.018796
C     -2.632508   -3.481669   -1.615464
C     -2.638919   -0.895059   -2.708660
C     -3.003741    3.452970    2.080045
C      7.442069    1.699150    2.149426
C     -1.373716   -1.710509   -2.778113
C      1.896755    0.193097   -0.716457
C     -2.794979    1.296473   -1.603735
C      4.097236    0.068663    0.166361
O     -3.634341   -6.079280    0.752349
O     -6.213849   -2.785839   -1.580168
O     -2.898278    1.353360    3.272351
O     -3.105437    5.498278    0.871618
O      8.631924   -0.380162    1.925251
O      6.261069    3.777341    2.376712
O      2.771487    0.943090   -2.787497
O      1.053529   -0.538027    1.366707
O     -3.067653    4.075987    3.313972
O      8.565349    2.180581    2.792259
O     -2.809545    1.913275   -2.686525
O      4.135247   -1.117127   -0.235555
O     -1.518471   -2.996055   -2.219334
O     -2.713190   -0.058762   -1.590978
O      2.950783    0.807380   -0.056121
H      0.683724   -0.295495   -3.855160
H     -0.865685   -1.629656   -0.126458
H     -2.782480    0.290695    0.831437
H     -2.966656    3.961946   -1.267102
H      6.452826   -1.175040    0.726960
H      4.370805    2.575163    1.158106
H     -5.769551   -4.830277    0.068812
H     -1.591205   -5.004941   -0.510379
H     -4.757138   -1.133557   -2.733644
H     -3.817052   -2.219821   -3.862618
H     -2.658345   -0.242905   -3.606055
H     -1.034745   -1.855796   -3.825561
H     -2.770891   -6.554683    1.003817
H     -7.054638   -3.138681   -1.135565
H     -2.945021    1.818888    4.146793
H     -3.156919    6.059058    1.692174
H      9.426214    0.016366    2.399240
H      7.042344    4.180083    2.847255
H      3.538214    1.392404   -2.336186
H      0.349461   -1.035557    1.874818
H     -3.131898    5.061813    3.467825
H      8.690909    3.093699    3.164409
