85

C     -4.857421    1.705271    0.573577
C     -4.092390    3.367128   -0.917732
C      5.975460    3.720124    0.370873
C     -2.644281   -5.767699   -2.277765
C      4.732507    2.176967    1.689770
C     -1.012526   -5.148109   -0.716649
C      2.627107    3.202742   -1.152043
C      3.495968   -0.909110   -0.897819
C     -1.752589   -0.480915    1.652160
C     -2.574307   -2.062966   -2.085486
C     -4.008675    2.056709   -0.421948
C      5.870099    2.887909    1.472694
C     -1.668983   -6.158218   -1.375113
C      3.802051    3.123954   -0.278549
C     -2.245932   -3.448319   -1.812888
C      2.416363   -0.430822   -0.176860
C     -0.662828   -0.869859    0.928543
C      4.923045    3.852853   -0.538117
C     -2.927438   -4.444143   -2.493715
C     -5.780271    2.593135    1.089025
C     -5.000709    4.226803   -0.402951
C      3.964592   -2.206762   -0.788707
C     -1.631308   -0.003501    2.971367
C      2.145903    1.766625   -1.427648
C      3.676094    2.275592    0.826050
C     -1.290501   -3.794323   -0.924941
C     -1.911195   -1.018725   -1.225921
C      1.747169   -1.267052    0.711163
C      0.627521   -0.808143    1.488579
C     -5.865478    3.880986    0.600662
C      3.288408   -3.043780    0.105339
C     -0.386432    0.056021    3.505058
C      2.236396   -2.577393    0.810134
C      0.743676   -0.342984    2.771717
C      1.910665    0.958287   -0.223923
C     -0.748523   -1.411591   -0.437662
C     -3.019022    1.199187   -1.047355
O      6.978049    2.839566    2.306038
O     -1.414476   -7.496016   -1.189000
O      5.049214    4.700098   -1.645637
O     -3.912386   -4.082551   -3.405568
O     -6.644981    2.215866    2.109101
O     -5.059731    5.534998   -0.924393
O      5.026364   -2.721831   -1.479984
O     -2.805938    0.374252    3.643964
O      2.986282    1.278232   -2.396229
O     -6.776829    4.794181    1.091524
O      3.743409   -4.373157    0.232702
O     -0.203373    0.512805    4.793339
O      1.564305   -3.412219    1.703219
O      1.989245   -0.254321    3.375148
O     -2.288380    1.603280   -1.960895
O      2.479839    1.606360    0.949184
O     -0.625205   -2.828740   -0.259015
O     -2.820702   -0.124145   -0.672146
H     -4.812730    0.699869    0.971351
H     -3.414045    3.673206   -1.728050
H      6.878383    4.289953    0.195413
H     -3.185259   -6.530937   -2.817818
H      4.649039    1.526600    2.545718
H     -0.243674   -5.407216    0.001184
H      2.779393    3.655552   -2.130680
H      1.827120    3.723611   -0.580760
H      4.046028   -0.271929   -1.577420
H     -2.774287   -0.525292    1.312700
H     -2.323324   -1.894748   -3.176876
H     -3.685987   -1.840013   -2.065028
H      1.129897    1.978173   -1.950449
H     -1.429472   -0.332619   -2.063116
H      0.808724    0.987811    0.010951
H      0.238367   -1.169634   -0.975556
H      7.030131    2.271484    3.136897
H     -0.747660   -8.050427   -1.698383
H      5.926335    5.195289   -1.743719
H     -4.441469   -4.742530   -3.931364
H     -7.314823    2.859575    2.489490
H     -4.437040    5.815100   -1.661861
H      5.623116   -2.298331   -2.138087
H     -2.707323    0.722504    4.576370
H      2.504708    1.065661   -3.211649
H     -6.862559    5.736853    0.752260
H      4.530603   -4.711208   -0.302709
H     -0.925452    0.826213    5.421188
H      1.881260   -4.355841    1.799621
H      2.085080    0.080733    4.326113
