26

C     -2.860949   -0.735599   -1.128311
C     -1.554432   -0.946420   -0.687974
C      3.613093    0.409450   -0.336336
C      0.603070   -1.815747    1.092569
C     -3.620304    0.291198   -0.582522
C      0.295060   -0.352331    0.726670
C      2.449838    0.286063    0.584555
C     -1.805957    0.818649    0.756169
N     -4.828822    0.495150   -0.981886
N     -3.055297    1.051755    0.363038
N     -1.028099   -0.168463    0.254442
O      3.495070    1.467820   -1.232635
O     -1.243485    1.629803    1.745382
O      1.253686    0.075469   -0.146779
Se     2.534411   -1.513716    1.412423
H     -3.311692   -1.354716   -1.893586
H     -0.993028   -1.758163   -1.138153
H      3.815397   -0.559647   -0.833502
H      4.512869    0.625935    0.282707
H      0.095946   -2.064258    2.021485
H      0.447827   -2.490574    0.253875
H      0.444643    0.208020    1.690457
H      2.352355    1.059005    1.339150
H     -5.369230    1.271291   -0.553213
H      4.431995    1.672656   -1.542892
H     -0.673966    2.397370    1.456643
