66

C      0.999102    2.232984   -3.085979
C      4.138652   -0.866581    2.374165
C      3.366186   -3.006419    1.789568
C     -4.107599    1.050507    3.127955
C     -1.751995    0.729962    2.993932
C      0.887214    1.245582   -0.977095
C     -2.531189   -1.048725   -5.568891
C     -2.192359    1.291657   -5.412138
C     -1.756351   -0.167912   -1.990846
C      0.219761    1.884404   -2.000017
C      3.422949   -1.669370    1.516883
C     -2.962284    0.961508    2.362204
C     -2.480642    0.186502   -6.176804
C     -2.003628   -0.044895   -3.438912
C     -2.289029   -1.145986   -4.194979
C      4.797855   -1.358252    3.493364
C      4.015705   -3.535214    2.904386
C     -4.082040    0.916298    4.499889
C     -1.748547    0.599584    4.361357
C      2.355942    1.951022   -3.125330
C     -1.951221    1.192325   -4.041979
C      2.230208    0.948733   -0.978965
C     -2.092573    1.172177   -1.359964
C      4.738656   -2.701995    3.763264
C     -2.878742    0.685109    5.145422
C      2.974934    1.313216   -2.082184
C     -1.229243    2.215612   -1.956456
C      2.771602   -1.043329    0.367727
C     -3.074819    1.113949    0.922977
O     -2.728322    0.250698   -7.551933
O     -2.364537   -2.436545   -3.683822
O      5.510434   -0.523223    4.337313
O      3.968485   -4.883345    3.196913
O     -5.273510    1.016171    5.212929
O     -0.546711    0.364442    5.046983
O      3.102413    2.326792   -4.256417
O      5.366214   -3.283760    4.860079
O     -2.888460    0.555984    6.518668
O      4.333951    1.034378   -2.129975
O      2.130170   -1.797314   -0.401725
O     -4.215802    1.337153    0.442592
O     -1.660972    2.346361   -3.312142
O      2.834379    0.295554    0.111402
O     -2.034991    1.034328    0.034184
H      0.520272    2.736017   -3.910019
H      4.207743    0.200901    2.195106
H      2.800173   -3.648464    1.120172
H     -5.075228    1.228140    2.677365
H     -0.875979    0.666465    2.373709
H      0.296104    0.967210   -0.111140
H     -2.760814   -1.919982   -6.168235
H     -2.160440    2.251488   -5.914294
H     -0.695205   -0.388956   -1.807140
H     -2.369480   -0.980126   -1.525903
H     -3.150239    1.378558   -1.712394
H     -1.360372    3.226547   -1.516523
H     -3.626995    0.379278   -7.957860
H     -2.229582   -2.616273   -2.673198
H      5.978586   -0.889592    5.137693
H      3.446044   -5.482910    2.582434
H     -6.162047    1.177102    4.809143
H      0.289403    0.297492    4.485560
H      2.657875    2.790129   -5.011349
H      5.908204   -2.836921    5.554137
H     -3.721613    0.617581    7.059792
H      4.764342    0.558597   -1.344659
