49

C     -2.612766    2.598983    0.653579
C     -1.232120    1.778948   -1.060698
C     -2.435382    3.870701    0.150110
C     -1.035060    3.023872   -1.585489
C      3.474171    1.519484    1.050321
C      2.767862    0.026458   -0.647247
C     -2.394857   -4.751374    0.077800
C     -2.988844   -2.887413   -1.265094
C     -1.236494   -1.709617    1.857792
C     -2.007082    1.515258    0.050429
C      2.505442    0.708802    0.516705
C     -1.649356    4.094476   -0.967898
C     -2.973144   -4.254227   -1.064077
C     -1.844528   -2.567563    0.830678
C     -1.826822   -3.932350    1.035188
C      4.693717    1.650030    0.430884
C      3.969543    0.132485   -1.290408
C     -2.425917   -2.065551   -0.317596
C     -0.994480   -0.293176    1.384355
C      4.938475    0.959573   -0.733124
C     -2.183798    0.157616    0.570646
C      1.232829    0.572181    1.162533
O     -1.471533    5.373647   -1.473498
O     -3.552046   -5.062844   -2.043056
O     -1.261028   -4.509354    2.163788
O      5.707072    2.464569    0.940501
O      4.279114   -0.534288   -2.463045
O      6.172040    1.074318   -1.384779
O      1.013428    1.207372    2.229518
O     -2.440726   -0.712121   -0.515263
O      0.205152   -0.228238    0.682938
H     -3.220425    2.443768    1.514225
H     -0.754734    0.926095   -1.536360
H     -2.903379    4.728815    0.611887
H     -0.412671    3.153045   -2.460868
H      3.331311    2.087591    1.969241
H      2.026581   -0.634703   -1.114791
H     -2.396293   -5.828587    0.210452
H     -3.432963   -2.449136   -2.149132
H     -0.213678   -2.135916    2.067897
H     -1.825130   -1.715161    2.794276
H     -0.946532    0.340793    2.272197
H     -3.069264    0.128931    1.235960
H     -0.896291    5.521711   -2.288470
H     -2.965654   -5.405940   -2.819009
H     -0.850711   -3.907077    2.854080
H      5.605624    2.999237    1.783450
H      3.664096   -1.146463   -2.943263
H      6.867251    1.672340   -0.978265
