28

C      1.782956    0.935847    0.775815
C      3.676560   -1.272902   -1.089554
C     -3.235352    0.926940   -2.084243
C     -0.787526   -0.263333    1.440295
C      2.977219    0.537600    0.360677
C      2.769837   -0.082494   -1.000948
C      0.814668    0.590230   -0.280810
C     -2.668791   -0.019695    0.387338
C     -3.979257    0.025968   -0.040076
C     -1.645361    0.410663   -0.428611
F      4.169714    0.644893    0.996495
N     -4.998299   -0.429550    0.838992
N     -4.220436    0.502575   -1.273870
N     -1.969657    0.877974   -1.659432
N     -2.119552   -0.435496    1.545110
N     -0.488579    0.252734    0.238872
O      5.002100   -0.846219   -1.147418
O      1.414020   -0.476500   -0.940669
H      1.584922    1.434965    1.747203
H      3.504625   -1.883980   -1.997053
H      3.549696   -1.945844   -0.219970
H     -3.496738    1.306987   -3.084654
H     -0.089843   -0.523930    2.250799
H      2.926368    0.627914   -1.815293
H      0.753200    1.446555   -0.995118
H     -5.175812   -1.458658    0.912093
H     -5.546736    0.275313    1.392151
H      5.496054   -1.158557   -0.330216
