30

C     -2.209847    1.636739    0.173362
C     -0.966371    1.537692   -0.278832
C     -1.918241   -0.599734   -0.539242
C     -3.584808   -0.047984    1.217771
C      3.217556    2.007808    0.229401
C      0.728279   -1.709322   -0.445556
C     -2.979235    0.398000   -0.109354
C     -0.724641    0.243907   -0.918294
C      2.580070   -0.672618    0.089582
C      3.834293   -0.234949    0.457087
C      1.632639    0.301441   -0.212958
N      4.791632   -1.265228    0.763628
N      4.135410    1.069126    0.522406
N      1.990951    1.592060   -0.130244
N      2.006410   -1.869375   -0.059467
N      0.520663   -0.376738   -0.533236
O     -4.314659   -1.202745    1.009140
H     -2.680579    2.487805    0.696575
H     -0.279971    2.391280   -0.135200
H     -1.708416   -1.276576    0.309080
H     -2.280370   -1.213676   -1.407575
H     -2.773794   -0.230745    1.947045
H     -4.275770    0.752629    1.550020
H      3.486538    3.060926    0.289885
H     -0.005646   -2.479742   -0.650771
H     -3.764494    0.532312   -0.860990
H     -0.725522    0.325002   -2.032602
H      4.539995   -2.067795    1.360670
H      5.736770   -1.177086    0.368508
H     -4.008843   -1.912413    1.627353
