47

C      2.462716    3.162777   -0.171855
C      2.780368   -2.832720   -0.801834
C      4.225629   -0.609571   -0.225178
C     -3.588905   -2.267990    1.709879
C     -3.891894   -2.336304   -0.735517
C     -3.260011    0.926047    0.309928
C     -3.900183   -0.217282    0.399385
C      0.301983    4.437442   -0.074188
C      1.001971    3.240187   -0.074645
C      1.999184   -1.539835   -0.926556
C      2.868687   -0.321526   -0.823950
C     -1.819765    0.917451    0.211436
C     -1.071652    4.382678    0.022269
C      0.263953    2.081693    0.022057
C      0.176613   -0.311925    0.123389
C      0.913646   -1.574922    0.124220
C     -1.123844    2.103857    0.116442
C     -1.198113   -0.308108    0.217580
C      0.909648    0.870601    0.025945
C     -3.277589   -1.545801    0.409560
O     -1.737334    5.475895    0.024498
O      1.537685   -1.691979    1.385488
O      2.281342    0.712993   -0.062051
O     -1.745353    3.259802    0.113148
O     -1.876167   -1.505994    0.311817
H      2.968774    2.784574    0.735828
H      2.830233    4.232923   -0.248276
H      2.831210    2.707837   -1.120089
H      2.034548   -3.653600   -0.990942
H      3.165846   -3.002297    0.215911
H      3.544600   -2.932508   -1.595706
H      5.017770    0.042232   -0.691500
H      4.563035   -1.642913   -0.386486
H      4.236894   -0.370352    0.864596
H     -3.068800   -1.734952    2.528589
H     -3.220436   -3.307538    1.590579
H     -4.677975   -2.253646    1.922900
H     -4.026659   -3.391257   -0.394269
H     -4.895650   -1.943321   -1.008508
H     -3.266822   -2.351436   -1.631876
H     -3.770944    1.887947    0.306703
H     -4.985544   -0.181684    0.472450
H      0.857662    5.340551   -0.148220
H      1.487954   -1.576717   -1.911338
H      3.044110    0.084821   -1.845706
H      0.303711   -2.465325   -0.017077
H      1.793866   -0.780806    1.721172
