28

C     -3.821049    1.522431   -0.197855
C      1.467128   -1.297166    0.820763
C     -1.536956    0.586588    0.040624
C      3.887416    0.331562   -1.085759
C     -2.849894    0.404848   -0.340016
C      2.750893   -1.048881    0.580830
C      2.785231    0.307734   -0.060411
C      0.713138   -0.130976    0.344717
C     -3.223866   -0.818444   -0.844900
C     -1.004492   -1.599687   -0.569818
F      3.848918   -1.797547    0.827545
N     -2.285983   -1.777868   -0.941611
N     -0.623765   -0.414316   -0.076127
O      3.821378    1.498007   -1.842793
O     -4.545139   -1.002995   -1.228518
O     -0.135573   -2.497973   -0.662607
O      1.516558    0.360930   -0.681743
H     -4.826434    1.160433    0.074186
H     -3.805439    2.145667   -1.109527
H     -3.450594    2.161433    0.642033
H      1.121510   -2.221662    1.288671
H     -1.240265    1.550404    0.438899
H      3.797643   -0.580957   -1.702428
H      4.843978    0.288991   -0.541785
H      2.831449    1.121393    0.669493
H      0.753482    0.641588    1.157189
H      4.521409    2.148904   -1.580870
H     -5.310682   -1.042440   -0.566599
