37

C     -2.172231   -0.775229   -3.166867
C     -3.551547    0.645206    1.041759
C     -1.876197   -1.082044   -1.704043
C      3.102185   -0.855270    1.556967
C      1.860953   -0.470021    1.811743
C      4.520276   -0.840945   -0.465085
C      3.157014   -1.203891    0.115870
C      1.138874   -0.585566    0.493298
C     -1.723907    2.305173    1.238719
C     -1.256403    0.044190    0.236446
C      0.454007    1.844313    0.495989
C     -2.052658    0.867575    1.162113
Br    -1.613559    0.188179    2.960889
N     -0.562562    2.727423    0.927519
N      0.138389    0.428386    0.412486
O      4.480717   -1.068084   -1.843683
O     -2.698522    3.238936    1.660684
O      1.605358    2.218341    0.184174
O     -1.558285    0.089239   -1.085298
O      2.150877   -0.428480   -0.451037
H     -3.066889   -1.323872   -3.532279
H     -2.412354    0.316017   -3.304754
H     -1.333117   -1.043452   -3.824084
H     -3.745241   -0.438002    1.037182
H     -4.071222    1.057564    1.932539
H     -3.984418    1.169530    0.164012
H     -2.767926   -1.594012   -1.313902
H     -0.974437   -1.736850   -1.708607
H      3.909273   -0.895132    2.299458
H      1.483461   -0.150599    2.762574
H      5.284219   -1.490075   -0.026126
H      4.724123    0.212262   -0.218378
H      2.965295   -2.300526   -0.053950
H      0.669543   -1.572545    0.406501
H     -1.334785   -1.011975    0.570893
H      3.655036   -0.712872   -2.251544
H     -2.543342    4.227109    1.477820
