51

C     -4.111632   -2.406319    1.649344
C      5.211582   -1.555139    0.472684
C      5.339561    1.336820   -0.380465
C     -2.880428    2.919551   -1.448050
C     -2.564934    3.161407    0.948248
C     -4.306873   -1.786230    0.305137
C     -3.133793   -0.871305    0.007508
C      0.498020    2.599699   -0.503383
C     -0.634370    3.263287   -0.462587
C     -1.784709   -2.956055    0.033021
C      4.243543   -0.856505   -0.460157
C      4.088471    0.567562   -0.031336
C     -1.850758   -1.594504   -0.047939
C      0.536727    1.167474   -0.410448
C     -0.516394   -3.542829   -0.025264
C     -0.680851   -0.869105   -0.183322
C      1.712449   -0.882162   -0.365154
C      2.973747   -1.614692   -0.412527
C      1.734511    0.489986   -0.456553
C     -0.646667    0.491097   -0.276136
C      0.521592   -1.559617   -0.230273
C     -1.917026    2.587890   -0.320925
O     -0.469323   -4.789401    0.050577
O      2.924316   -2.868581   -0.410719
O      2.940811    1.178285   -0.592691
O      0.577360   -2.870719   -0.150564
O     -1.791553    1.217193   -0.239004
H     -3.096537   -2.286210    2.075734
H     -4.783164   -1.876284    2.393415
H     -4.413201   -3.464443    1.731590
H      5.822422   -2.263983   -0.122993
H      5.846100   -0.822161    1.001616
H      4.680585   -2.141406    1.250052
H      5.578079    2.004255    0.453556
H      5.132031    1.942844   -1.292708
H      6.201775    0.676881   -0.559480
H     -3.912981    2.771357   -1.020433
H     -2.778301    2.168814   -2.265574
H     -2.754080    3.954932   -1.775305
H     -3.503287    2.624783    1.146879
H     -2.749734    4.230889    0.746399
H     -1.885765    3.099440    1.808196
H     -5.212770   -1.111803    0.315250
H     -4.492224   -2.507762   -0.509088
H     -3.397832   -0.335910   -0.925264
H     -3.152832   -0.168994    0.907070
H      1.459385    3.121197   -0.610203
H     -0.560938    4.366631   -0.541668
H     -2.655441   -3.584025    0.127292
H      4.633152   -0.908490   -1.485367
H      3.982182    0.552362    1.092010
