37

C     -1.136142    2.001859   -1.804911
C     -3.343425   -0.914708    0.565366
C     -2.110435    0.862466   -1.736925
C      2.749923    1.411248   -0.239477
C      1.897227    0.674555   -0.943275
C      3.215433    1.719950    2.151178
C      2.950894    0.711429    1.068413
C      1.574736   -0.490171   -0.049719
C     -1.860994   -2.782163    0.248316
C     -0.997638   -0.458180   -0.160608
C      0.262856   -2.477974   -0.649583
C     -1.905117   -1.373859    0.664907
Br    -1.360774   -1.309918    2.533266
N     -0.859822   -3.268007   -0.351172
N      0.306423   -1.076449   -0.279085
O      4.477385    2.265737    1.900077
O     -2.994073   -3.593665    0.543621
O      1.273355   -2.964340   -1.251797
O     -1.606496   -0.353844   -1.395936
O      1.712368    0.089380    1.205146
H     -1.704762    2.974190   -1.917319
H     -0.454804    1.926750   -2.666993
H     -0.567325    2.124473   -0.863833
H     -3.526702    0.067308    1.003079
H     -4.018453   -1.655734    1.088575
H     -3.657068   -1.010742   -0.509894
H     -2.905735    1.197615   -1.003117
H     -2.634980    0.848434   -2.733649
H      3.239655    2.336916   -0.492352
H      1.539291    0.892259   -1.939414
H      2.467651    2.526941    2.080552
H      3.260532    1.235363    3.132488
H      3.712979   -0.072044    1.008697
H      2.417715   -1.219266   -0.162739
H     -0.989325    0.533685    0.315732
H      4.436734    3.212061    1.635860
H     -2.861087   -4.591556    0.530867
