28

C      4.105289   -0.546136   -0.477329
C     -1.542624    1.475566   -0.580364
C      1.676132   -0.131425   -0.650529
C     -3.673055   -0.993189    0.550026
C      2.824087   -0.075829    0.116450
C     -2.796238    1.107100   -0.403574
C     -2.806393   -0.376127   -0.521498
C     -0.698922    0.275524   -0.815861
C      2.804192    0.400948    1.404168
C      0.522138    0.778319    1.208122
F     -3.902275    1.868870   -0.159430
N      1.648998    0.831528    1.957281
N      0.533610    0.312331   -0.054732
O     -3.681785   -2.365077    0.393147
O      4.008996    0.420410    2.103263
O     -0.592242    1.167654    1.670821
O     -1.498791   -0.816626   -0.474123
H      3.944556   -0.979247   -1.476262
H      4.589267   -1.327236    0.158383
H      4.823418    0.314723   -0.548893
H     -1.178094    2.483639   -0.559284
H      1.697538   -0.503113   -1.651237
H     -3.334694   -0.730283    1.556865
H     -4.708662   -0.585652    0.380892
H     -3.250959   -0.640718   -1.515170
H     -0.510946    0.203013   -1.902438
H     -3.507909   -2.863139    1.223778
H      4.505369    1.294171    2.158854
