31

C     -2.345382   -1.636560    0.149148
C      2.937108    0.935357    0.067016
C      1.807379    1.409138    0.558838
C      3.386292   -0.873398   -1.518352
C      2.690289   -0.503639   -0.238697
C      0.824654    0.275188    0.572532
C     -3.128334    0.522297   -0.534915
C     -1.555471    0.424933    1.321112
C     -0.923773    1.440912   -0.784651
C     -2.692185   -0.239425    0.644413
Br    -4.182791   -0.363909    1.892644
N     -2.308025    1.277222   -1.168940
N     -0.511214    0.704956    0.366113
O      4.761021   -0.859686   -1.384138
O     -4.463259    0.417916   -0.968756
O     -1.080738   -0.270606    2.428373
O     -0.119147    2.163059   -1.390790
O      1.309929   -0.539430   -0.452209
H     -2.157654   -1.641910   -0.943629
H     -1.465018   -2.056244    0.641154
H     -3.225318   -2.303153    0.347366
H      3.875560    1.445051   -0.099590
H      1.627787    2.422691    0.888328
H      3.118909   -0.112590   -2.293176
H      3.065805   -1.888128   -1.845895
H      3.006797   -1.161416    0.583717
H      0.983145   -0.283512    1.512552
H     -1.916589    1.409025    1.730050
H      5.002169   -0.111822   -0.784169
H     -4.858473    1.170087   -1.529369
H     -1.463474   -1.172404    2.512297
