34

C     -2.354559   -1.180652   -1.206304
C     -0.918716   -0.473281    2.430561
C      2.315627   -1.319677   -0.229971
C      1.135309   -1.018597   -0.790580
C      3.751979   -0.190004    1.452573
C      2.888753   -0.026657    0.223553
C      0.996251    0.443005   -0.676954
C     -2.992254    1.152858   -1.311597
C     -1.317294    0.405336    0.367453
C     -0.811721    1.920046   -1.480070
C     -2.591245    0.085006   -0.384557
Cl    -3.943535   -0.236532    0.718010
N     -2.183701    2.017691   -1.833984
N     -0.358505    0.899857   -0.580212
O      4.879877   -0.911746    1.061455
O     -4.347004    1.230412   -1.646129
O      0.019199    2.755169   -1.974441
O     -0.896199   -0.703907    1.059407
O      1.716115    0.695606    0.515837
H     -1.637020   -0.986664   -2.029365
H     -3.351896   -1.481507   -1.587926
H     -1.981127   -1.947820   -0.502462
H     -0.576893   -1.375283    2.979211
H     -1.958269   -0.272876    2.795587
H     -0.271193    0.358045    2.744374
H      2.788617   -2.281006   -0.111222
H      0.484362   -1.770961   -1.215490
H      4.103157    0.781247    1.845556
H      3.268564   -0.749278    2.250450
H      3.405465    0.485986   -0.593829
H      1.535184    0.961990   -1.468598
H     -1.572630    1.219250    1.107745
H      5.428568   -0.421949    0.390291
H     -4.653267    1.936891   -2.318371
