32

C     -3.887653    0.002811    1.335190
C      3.028404    0.696039   -0.217338
C      1.819160    1.236168   -0.291999
C      3.916995   -1.568712    0.275255
C      2.902428   -0.507071    0.634861
C      0.938825    0.329401    0.539470
C     -1.526329    0.609389    0.856479
C     -2.850579   -0.752588   -0.777561
C     -0.667853   -0.067897   -1.350884
C     -2.607284   -0.408945    0.638311
Br    -2.024250   -2.055675    1.514169
N     -1.010251    3.577611   -0.868088
N     -1.942987   -0.583647   -1.653752
N     -1.965495    1.966559    0.664753
N     -1.247395    2.716096    0.003458
N     -0.379814    0.281758   -0.004440
O      5.182493   -1.018069    0.551317
O     -4.103842   -1.276803   -1.178357
O      0.236984    0.101704   -2.212178
O      1.600564   -0.921565    0.410151
H     -4.712237   -0.552473    0.829287
H     -3.803308   -0.265127    2.392801
H     -4.082473    1.102489    1.185493
H      3.949813    1.079939   -0.703637
H      1.517128    2.121125   -0.821735
H      3.823720   -2.467089    0.916854
H      3.902763   -1.793052   -0.807654
H      3.024869   -0.172717    1.682453
H      0.986869    0.616036    1.590241
H     -1.203550    0.507529    1.930821
H      5.543358   -1.338110    1.400609
H     -4.359073   -1.195114   -2.174832
