31

C     -3.606504   -0.658542   -0.917531
C      2.516725    1.197709   -0.934433
C      1.271898    1.397734   -0.510070
C      3.998720   -0.766603   -0.886442
C      3.049340    0.068302   -0.084073
C      1.033025    0.429305    0.567125
C     -3.046875    0.333576    1.191828
C     -1.215050   -0.524126   -0.202656
C     -0.893301    0.235799    2.088480
C     -2.545483    0.150813   -0.182852
Br    -2.464289    1.883418   -1.089634
N     -2.293680    0.373008    2.224413
N     -0.321593    0.048100    0.770549
O      5.134044   -0.006179   -1.127479
O     -4.448920    0.477752    1.416289
O     -1.420594   -1.882178    0.087054
O     -0.125985    0.273438    3.095019
O      1.857961   -0.639374    0.205848
H     -3.570230   -1.731592   -0.657449
H     -4.586939   -0.262491   -0.580107
H     -3.525914   -0.543110   -2.006977
H      3.066327    1.710288   -1.715845
H      0.608941    2.158474   -0.930086
H      3.520569   -1.014844   -1.857826
H      4.293397   -1.658336   -0.325038
H      3.453357    0.416703    0.866505
H      1.478765    0.838782    1.506873
H     -0.774936   -0.452595   -1.225624
H      5.768103    0.004437   -0.388606
H     -4.798666    0.550748    2.352616
H     -1.412213   -2.408418   -0.749871
