34

C     -3.648447    0.056473   -0.389721
C     -1.250792    2.285291   -0.357219
C      2.684662   -0.556881   -1.286322
C      1.534372   -1.135980   -0.946391
C      3.883237    1.484758   -0.537586
C      3.091386    0.277924   -0.114124
C      1.247121   -0.650026    0.432755
C     -2.772563   -1.522957    1.184733
C     -1.181987    0.034835    0.024847
C     -0.583198   -1.358506    1.912493
C     -2.438077   -0.800667   -0.043506
Cl    -2.268437   -2.018310   -1.337861
N     -1.919522   -1.774257    2.073228
N     -0.131214   -0.644332    0.760129
O      5.106907    1.022773   -1.020977
O     -4.083757   -1.942060    1.365996
O      0.283497   -1.616479    2.818160
O     -1.492800    1.266384    0.578721
O      1.828936    0.618703    0.395428
H     -4.580675   -0.383960    0.071471
H     -3.842375    0.062839   -1.484054
H     -3.568407    1.073982    0.015258
H     -1.859675    2.158831   -1.274357
H     -1.485669    3.282236    0.066112
H     -0.183151    2.313018   -0.667607
H      3.251852   -0.639973   -2.210127
H      0.979050   -1.806845   -1.585416
H      4.075778    2.158257    0.304217
H      3.391252    2.004512   -1.382528
H      3.607332   -0.302528    0.653807
H      1.820554   -1.237376    1.150249
H     -0.826960    0.177303   -1.003045
H      5.670309    0.643599   -0.291642
H     -4.338541   -2.530580    2.124879
