25

C      2.029271    0.868171    1.742951
C      1.035428    0.513759    0.854844
C      0.181418   -0.696523   -1.714149
C     -2.635100    1.294462   -1.358228
C     -0.816784   -0.056757   -2.292836
C     -1.960066   -0.059848   -1.353054
C      2.776889   -0.103490    2.354757
C     -0.283464   -1.135698   -0.377301
C      1.527442   -1.708635    1.185540
F     -0.805946    0.518417   -3.553692
N      2.508446   -1.384937    2.060988
N      0.778427   -0.775490    0.570760
O     -3.667906    1.236635   -0.425684
O      3.800191    0.209409    3.266828
O      1.266935   -2.910143    0.902365
O     -1.439636   -0.395064   -0.129080
H      2.225882    1.892423    1.961995
H      0.417304    1.266056    0.346694
H      1.152945   -0.879657   -2.108767
H     -1.940968    2.119781   -1.197745
H     -3.110362    1.414295   -2.370675
H     -2.690279   -0.813500   -1.738662
H     -0.444355   -2.214287   -0.305109
H     -4.549510    1.125157   -0.856023
H      4.643798    0.675467    2.908021
