34

C     -3.782632    0.468719    0.682476
C     -1.403796    2.796472    0.151915
C      2.871538   -0.067739   -1.665801
C      1.571889    0.207521   -1.708870
C      4.315123   -1.227611   -0.012544
C      3.170691   -0.270061   -0.221765
C      1.065225    0.175412   -0.288114
C     -2.665338   -1.575747    0.058154
C     -1.310617    0.490652    0.344608
C     -0.568265   -1.521622   -0.973515
C     -2.482965   -0.319440    0.793279
Cl    -2.325903   -0.751204    2.533736
N     -1.831695   -2.123477   -0.727102
N     -0.287061   -0.295863   -0.308886
O      5.465058   -0.608562   -0.511200
O     -3.891191   -2.242524    0.242631
O      0.267206   -2.059386   -1.753108
O     -1.710969    1.575587   -0.432036
O      1.959703   -0.782915    0.241341
H     -3.965885    0.996778    1.643828
H     -4.614441   -0.254311    0.555459
H     -3.768463    1.191602   -0.143739
H     -0.331012    2.946542    0.330073
H     -1.920210    2.914209    1.131029
H     -1.825157    3.580684   -0.510961
H      3.553666   -0.128322   -2.508936
H      0.963552    0.418683   -2.577881
H      4.163598   -2.197754   -0.480124
H      4.476736   -1.384988    1.072245
H      3.353569    0.713543    0.244158
H      1.218724    1.116769    0.234236
H     -0.836325    0.924656    1.254455
H      5.273620    0.267968   -0.930205
H     -4.167972   -2.974272   -0.426031
