31

C     -2.322755    0.769302    1.022307
C      2.928156    0.126029   -0.941527
C      1.825780   -0.090922   -1.651973
C      3.393509    0.349849    1.435611
C      2.671134   -0.477943    0.420783
C      0.903424   -0.813459   -0.754506
C     -3.255990   -0.516720   -0.771423
C     -1.094136    0.649277   -1.112805
C     -1.339760   -1.750581   -1.290892
C     -2.441074    0.674078   -0.488247
Br    -3.465134    2.230811   -1.065794
N     -2.740353   -1.621374   -1.136992
N     -0.465907   -0.645415   -1.043194
O      3.008142    0.018763    2.734202
O     -4.675106   -0.443597   -0.635267
O     -0.306918    1.618737   -0.453016
O     -0.884254   -2.860947   -1.650442
O      1.269852   -0.295155    0.505505
H     -2.154389    1.793901    1.377675
H     -1.592260    0.045448    1.435682
H     -3.324236    0.449886    1.431522
H      3.843758    0.615122   -1.204361
H      1.713164    0.233980   -2.681608
H      4.471299    0.100243    1.358198
H      3.266496    1.434103    1.257761
H      2.962954   -1.525044    0.474215
H      1.240833   -1.873215   -0.736649
H     -1.188824    1.017483   -2.155484
H      3.231123    0.741948    3.377865
H     -5.124261   -1.340685   -0.459688
H     -0.354265    1.386095    0.508568
