34

C     -2.484284   -0.292858    1.343404
C     -0.795922    2.366788   -0.777570
C      2.833586    0.612869   -0.648174
C      1.816873    0.187126   -1.386405
C      3.246811    0.781391    1.773319
C      2.745380   -0.114308    0.671009
C      1.094119   -0.806636   -0.526332
C     -2.963482   -1.705723   -0.588893
C     -1.253608    0.112856   -0.792943
C     -0.780847   -2.252741   -1.181474
C     -2.564090   -0.347098   -0.189882
I     -4.143439    0.964656   -0.839522
N     -2.148004   -2.555393   -1.034122
N     -0.280730   -0.943680   -0.821163
O      4.625624    0.887850    1.624013
O     -4.313918   -2.106761   -0.480454
O      0.000948   -3.131917   -1.629451
O     -0.802787    1.187480   -0.043760
O      1.343111   -0.277631    0.748557
H     -3.183320    0.475482    1.742134
H     -1.463561   -0.034157    1.644934
H     -2.751296   -1.269486    1.775723
H     -1.854450    2.559490   -1.105604
H     -0.110883    2.315315   -1.644897
H     -0.509135    3.241317   -0.178627
H      3.594222    1.342556   -0.919863
H      1.566386    0.494727   -2.394849
H      3.048071    0.320826    2.746483
H      2.798483    1.788547    1.683851
H      3.266717   -1.070074    0.657685
H      1.669346   -1.752753   -0.599940
H     -1.489231    0.465247   -1.821098
H      4.853615    1.530172    0.885275
H     -4.610308   -2.973477   -0.943418
