53

C      4.323590    2.719719    0.673595
C     -5.239068    1.636556   -0.061944
C     -4.265307   -0.960815    1.665827
C      2.597035   -2.958018    1.689064
C      2.681763   -3.463886   -0.704423
C      4.388629    1.673707   -0.390232
C      3.183827    0.713430   -0.363197
C     -0.563857   -2.662929    0.220855
C      0.565256   -3.307751    0.435198
C      1.815801    2.753196   -0.939086
C     -3.928633    0.912630    0.162579
C     -4.083493   -0.569221    0.190747
C      1.909607    1.409412   -0.609404
C     -0.500340   -1.253194   -0.109091
C      0.617388    3.391390   -1.159256
C      0.710208    0.726417   -0.512558
C     -1.676657    0.731864   -0.648313
C     -2.961891    1.419793   -0.886487
C     -1.712654   -0.595643   -0.333385
C      0.723340   -0.619539   -0.191870
C     -0.490156    1.409809   -0.743845
C      1.895041   -2.694981    0.363131
O      0.544942    4.604896   -1.455838
O     -3.450520    1.103926   -2.163960
O     -2.939644   -1.288821   -0.235792
O     -0.472300    2.705359   -1.054403
O      1.877252   -1.334167    0.040356
H      5.072794    2.501488    1.499731
H      3.341883    2.777164    1.184152
H      4.601883    3.742148    0.349942
H     -5.709972    1.180852   -0.957760
H     -5.874934    1.621183    0.825528
H     -4.972003    2.677108   -0.359512
H     -4.872751   -0.209460    2.181310
H     -4.641016   -1.992056    1.730410
H     -3.222640   -0.910734    2.090216
H      3.197167   -2.092588    1.989866
H      3.249524   -3.845692    1.614338
H      1.849652   -3.187349    2.481564
H      2.201724   -3.335734   -1.705815
H      2.678673   -4.530011   -0.472098
H      3.727370   -3.088573   -0.723239
H      5.328679    1.102295   -0.254183
H      4.477435    2.124962   -1.419146
H      3.236429    0.313412    0.687577
H      3.422221   -0.046887   -1.132500
H     -1.531156   -3.147978    0.282603
H      0.545012   -4.377153    0.687355
H      2.722381    3.321138   -1.039557
H     -3.529176    1.295842    1.146908
H     -4.996513   -0.871246   -0.359941
H     -2.851220    2.506180   -0.740252
H     -3.000606    0.268552   -2.465766
