55

C     -3.584859    3.685494    0.847014
C      5.470545    0.514118   -0.118295
C      4.036779   -1.782127    1.712624
C     -2.677644   -2.632907   -1.218865
C     -3.690706   -2.301504    1.041082
C     -3.851502    2.722593   -0.264451
C     -2.924733    1.516817   -0.280680
C     -0.009650   -2.721215    0.229620
C     -1.363438   -2.961472    0.810917
C     -1.192331    3.253407   -0.807393
C      4.034545    0.128269    0.217547
C      3.874238   -1.354202    0.249042
C     -1.534051    1.934064   -0.511789
C      0.224661   -1.275298   -0.072320
C      0.130276    3.533807   -0.997932
C     -0.537590    0.962399   -0.424307
C      1.762304    0.433209   -0.560317
C      3.175405    0.839881   -0.795311
C      1.522521   -0.883976   -0.280890
C     -0.810929   -0.364363   -0.141306
C      0.761297    1.378819   -0.639844
C     -2.435087   -2.114212    0.204589
O      0.430916    4.738278   -1.264965
O      3.594189    0.462474   -2.056905
O      2.593966   -1.801429   -0.212764
O      1.066933    2.642440   -0.919001
O     -2.100433   -0.760722    0.066011
H     -4.371055    3.605438    1.663802
H     -2.633576    3.544405    1.360809
H     -3.750017    4.736130    0.467393
H      6.169763   -0.058648    0.517428
H      5.659372    0.384676   -1.207983
H      5.565116    1.590611    0.123758
H      3.685631   -0.988622    2.394836
H      5.123096   -1.955176    1.894370
H      3.487303   -2.712855    1.910870
H     -1.865360   -2.263427   -1.865262
H     -2.789940   -3.725365   -1.236943
H     -3.601909   -2.119623   -1.569581
H     -4.352446   -1.415126    1.021751
H     -4.247986   -3.149944    0.634697
H     -3.403643   -2.512811    2.088074
H     -4.912654    2.358841   -0.132847
H     -3.879461    3.224297   -1.277406
H     -3.026732    1.085025    0.755689
H     -3.335694    0.852620   -1.067212
H      0.774388   -2.995427    0.968844
H      0.148938   -3.362749   -0.670020
H     -1.629351   -4.031574    0.613760
H     -1.352525   -2.868561    1.935734
H     -1.981495    3.959104   -0.884246
H      3.788501    0.572496    1.220426
H      4.675083   -1.849633   -0.338900
H      3.318529    1.928671   -0.609435
H      2.772500    0.374587   -2.607652
