25

C     -3.289282    1.087470    0.610600
C     -1.964804    0.901349    0.978478
C      0.632116   -1.379105    0.801946
C      3.489859   -0.174439   -0.831412
C      1.929640   -1.479923    0.531144
C      2.350016   -0.103263    0.147111
C     -3.750007    0.580543   -0.590115
C      0.267620    0.047059    0.584075
C     -1.561032   -0.248823   -0.961212
F      2.675220   -2.611618    0.601284
N     -2.847200   -0.079477   -1.339824
N     -1.089814    0.235121    0.202059
O      3.784077    1.071104   -1.339161
O     -5.080860    0.748025   -0.996419
O     -0.747008   -0.874763   -1.695049
O      1.181243    0.390774   -0.433453
H     -3.995941    1.633327    1.252277
H     -1.592882    1.300363    1.928597
H     -0.070299   -2.138771    1.119765
H      3.248282   -0.929062   -1.597882
H      4.373043   -0.548228   -0.277870
H      2.595741    0.444871    1.073441
H      0.553815    0.627957    1.461816
H      4.762248    1.126009   -1.480374
H     -5.853790    0.373502   -0.451802
