40

C      1.577127   -2.581201    0.761687
C      3.299535    1.763406    0.791629
C      4.171038    1.535413   -0.413784
C     -1.765569    1.950538    0.411210
C     -3.883972    1.033793    0.052192
C     -0.320983   -2.157354   -0.708668
C      2.316664   -0.202200   -0.604365
C      0.325808    0.860995    0.192155
C      0.555032   -1.552809    0.394211
C      3.368691    0.409529    0.249431
C     -1.152446    0.745712    0.091178
C     -3.130654    2.133611    0.402955
C     -3.357935   -0.183511   -0.275376
C     -1.971835   -0.319382   -0.252627
C     -2.805104   -2.224251   -0.839306
N     -3.722546    3.399489    0.741755
N     -3.830962   -1.382461   -0.642356
N      1.041692   -0.320811   -0.050064
N     -1.642927   -1.578048   -0.600927
O     -2.858392   -3.555698   -1.225772
H      2.066978   -3.061641   -0.107722
H      1.032549   -3.407492    1.287753
H      2.321615   -2.211408    1.495944
H      3.865715    1.978727    1.740771
H      2.506364    2.495080    0.622113
H      5.271034    1.530308   -0.273608
H      3.848580    1.909812   -1.383030
H     -1.128957    2.806018    0.685976
H     -4.958392    1.144143    0.036384
H      0.162136   -1.873168   -1.671767
H     -0.342787   -3.261982   -0.634976
H      2.238930    0.358336   -1.582129
H      2.694685   -1.212452   -0.930367
H      0.619884    1.628979   -0.582209
H      0.515478    1.313493    1.209916
H     -0.126029   -1.444513    1.277561
H      4.006213   -0.314672    0.812779
H     -4.711328    3.600051    0.475856
H     -3.151334    4.088219    1.245123
H     -2.943597   -3.840600   -2.199527
