45

C      0.615950   -1.660524    1.706066
C     -2.172445    4.170890    0.813376
C      3.988450    2.331397    0.098851
C      4.245751    1.458459   -1.111770
C     -3.454935    0.233423   -0.571212
C     -3.791629   -1.091627   -0.724104
C      0.814241   -2.772488   -0.546449
C      2.433967    0.351688    0.330307
C      0.199402    0.388927   -0.289724
C      1.303132   -1.671257    0.363645
C     -2.456927    2.731629    0.595776
C      2.863037    1.520719   -0.524752
C     -1.093958   -0.263955   -0.445931
C     -2.152092    0.650848   -0.435067
C     -2.751936   -1.996261   -0.735240
C     -1.419316   -1.591379   -0.598356
C     -1.442344   -3.747850   -0.805575
N     -1.834364    2.027113   -0.273712
N     -2.711323   -3.339586   -0.860458
N      1.363791   -0.404231   -0.286400
N     -0.625637   -2.681915   -0.644132
O     -3.435839    2.135846    1.367954
O     -0.935067   -5.057422   -0.892797
H     -0.420727   -1.317842    1.686364
H      0.719815   -2.706620    2.105875
H      1.260195   -1.052710    2.397215
H     -1.749825    4.672698   -0.069654
H     -3.091539    4.728528    1.089313
H     -1.461476    4.310778    1.676824
H      4.464687    1.996623    1.024623
H      3.988784    3.435803   -0.039412
H      4.838087    0.528423   -0.953883
H      4.489565    2.017909   -2.022732
H     -4.242404    1.000913   -0.553938
H     -4.819341   -1.439725   -0.834560
H      1.265134   -2.627668   -1.527202
H      1.037052   -3.743737   -0.062443
H      2.124237    0.800381    1.314485
H      3.332123   -0.249065    0.560159
H      0.206471    1.121158    0.574458
H      0.295714    1.083126   -1.183872
H      2.374436   -1.956079    0.593540
H      2.097386    2.141466   -1.037541
H     -3.375131    1.178372    1.684377
H     -0.883155   -5.645177   -0.081778
