46

C     -3.112133   -1.845170   -1.484305
C      5.008501    1.323496   -1.156574
C      4.091993    2.435595    0.887533
C     -3.103006    2.844098   -0.039728
C     -3.743361    2.549959    1.306728
C      1.676376    0.803913   -0.278426
C      3.194670   -0.896415    0.323780
C     -1.373276   -2.499796    0.091495
C     -2.784088    0.288639    0.544068
C     -0.623432    0.642927   -0.528654
C     -1.799341   -1.424199   -0.874674
C     -3.600834    1.494587    0.181549
C      0.633466   -0.092496   -0.209831
C      3.001036    0.429257   -0.011479
C      2.180236   -1.832449    0.404635
C      0.894129   -1.395884    0.128665
C      0.799787   -3.555400    0.618871
N      2.062605   -3.128792    0.690709
N      4.041592    1.388694   -0.098334
N     -1.785586   -0.112064   -0.354920
N      0.069799   -2.449593    0.263104
O      0.242919   -4.807104    0.837245
H     -2.924929   -2.873423   -1.930279
H     -3.911399   -1.997590   -0.745627
H     -3.403883   -1.196933   -2.329192
H      5.573020    0.352746   -1.007426
H      5.802931    2.097856   -1.043632
H      4.599931    1.328448   -2.174023
H      3.634268    2.098440    1.862160
H      3.495650    3.317079    0.551958
H      5.094670    2.809634    1.125431
H     -2.079994    3.200922   -0.009589
H     -3.760620    3.524632   -0.669856
H     -4.771571    2.912630    1.498319
H     -3.027245    2.449642    2.161585
H      1.543337    1.848189   -0.539345
H      4.217425   -1.240500    0.539997
H     -1.812706   -2.220160    1.095818
H     -1.729264   -3.504633   -0.216097
H     -3.515111   -0.574736    0.635780
H     -2.404048    0.389134    1.606491
H     -0.570248    1.061307   -1.551362
H     -0.613819    1.510294    0.185639
H     -1.060785   -1.436320   -1.735689
H     -4.601778    1.234559   -0.294108
H      0.254113   -5.253020    1.741592
