45

C     -3.270840   -1.756259    0.363001
C      4.553951    1.855983   -0.796386
C     -3.513786    3.042896    0.472705
C     -4.332240    1.793003    0.310063
C      1.734841    0.398382    1.466730
C      3.355045   -0.708743    0.049074
C     -1.079464   -2.517961   -0.364863
C     -1.922270    1.087002   -0.062901
C     -0.597055   -0.239286    1.486905
C     -1.929382   -1.315712   -0.254709
C      4.748929    1.841859    0.680839
C     -2.931820    1.707376    0.841003
C      0.808305   -0.447981    0.957191
C      3.040148    0.251006    0.989185
C      2.417358   -1.563434   -0.464411
C      1.111763   -1.415934    0.013877
C      1.102788   -3.046496   -1.434070
N      4.049751    1.103564    1.483571
N      2.351592   -2.562644   -1.336158
N     -1.420146   -0.160149    0.344999
N      0.318110   -2.333817   -0.590405
O      5.745177    2.680073    1.184109
O      0.597845   -4.075249   -2.215983
H     -3.484345   -1.135658    1.259927
H     -4.111785   -1.644178   -0.350061
H     -3.240115   -2.825393    0.658418
H      3.530896    1.487074   -1.072248
H      5.354359    1.277819   -1.300527
H      4.618471    2.910630   -1.195605
H     -3.816119    3.745149    1.265938
H     -3.090253    3.499304   -0.461870
H     -4.534633    1.488000   -0.741132
H     -5.209224    1.681046    0.990111
H      1.459898    1.126078    2.188974
H      4.383110   -0.827877   -0.331359
H     -1.179964   -3.142976    0.571036
H     -1.480635   -3.182021   -1.180489
H     -2.378629    0.955652   -1.078634
H     -1.079960    1.817523   -0.264204
H     -0.858467   -1.056339    2.193494
H     -0.579555    0.703167    2.048108
H     -2.199596   -1.031171   -1.321228
H     -2.885191    1.458407    1.923079
H      5.716301    3.001833    2.153472
H      0.126837   -3.923546   -3.104077
