44

C     -4.314181   -0.850051    0.182715
C     -4.799911    1.623364   -0.242472
C      1.548618    3.013383   -1.298537
C      0.266197   -0.811173    2.156577
C      3.629516    1.971242   -0.691959
C      4.401088    0.917292   -0.258594
C     -2.666745    0.636088   -0.782300
C     -1.744925   -0.536111   -0.833615
C      0.855418   -2.304890    0.337548
C      0.243523    0.656489   -0.622128
C     -3.872013    0.469488   -0.300307
C      2.237924    1.828700   -0.808202
C     -0.161598   -1.323188    0.767730
C      1.686875    0.613377   -0.475872
C      3.841419   -0.285748    0.066849
C      2.472188   -0.445899   -0.041038
C      3.309615   -2.327463    0.655997
N      4.316815   -1.472447    0.501230
N     -0.552444   -0.315847   -0.061753
N      2.159769   -1.703402    0.322347
O      3.333009   -3.659697    1.083592
H     -3.592196   -1.188502    0.961444
H     -4.237543   -1.614843   -0.646247
H     -5.351537   -0.829455    0.587733
H     -4.758499    2.230108   -1.187660
H     -4.447127    2.345924    0.550385
H     -5.853751    1.329412   -0.069131
H      1.936745    3.889108   -0.694142
H      1.851251    3.274627   -2.350003
H      0.478337    3.065463   -1.270784
H      0.412834   -1.742037    2.759966
H     -0.556302   -0.263148    2.635623
H      1.224497   -0.298121    2.130078
H      4.138535    2.894401   -0.933481
H      5.479077    1.009706   -0.161162
H     -2.350194    1.620199   -1.138452
H     -1.525799   -0.684875   -1.929294
H     -2.219910   -1.471109   -0.493076
H      0.621029   -2.722826   -0.658705
H      0.869523   -3.167007    1.043636
H     -0.068938    1.621879   -0.086544
H     -0.014264    0.824958   -1.692731
H     -1.086466   -1.939504    1.020067
H      2.860539   -3.877863    1.964671
