47

C     -0.497056    3.389359    0.772932
C      4.003401    1.503974    1.591032
C      4.020973   -0.669575    0.250110
C      0.026736   -1.521380   -2.897639
C     -1.755844    2.866888    0.191490
C     -3.117397    1.386948    1.645624
C     -3.522350    0.145397    2.089510
C      2.262909    0.968888   -0.096730
C      1.694815    0.051138   -1.103862
C     -0.820233   -2.599106   -0.829738
C     -0.671440    0.577318   -0.971305
C      3.375501    0.624873    0.556884
C      0.171829   -1.677200   -1.376012
C     -2.163527    1.524834    0.622913
C     -1.674113    0.354577    0.108383
C     -3.032769   -1.022200    1.574454
C     -2.078933   -0.919127    0.552148
C     -2.422533   -3.029403    0.915075
N     -3.201236   -2.334847    1.752572
N      0.361151   -0.397812   -0.831508
N     -1.727827   -2.148467    0.171219
O     -2.395021   -4.428955    0.882445
H      0.265531    3.731986    0.028520
H     -0.682247    4.331229    1.378560
H     -0.042664    2.693724    1.537123
H      4.538135    0.845061    2.317339
H      4.735531    2.199953    1.154222
H      3.185209    2.065521    2.091842
H      4.334465   -0.633288   -0.838899
H      3.276794   -1.462520    0.330939
H      4.902776   -0.862629    0.897741
H      0.817142   -2.103996   -3.444439
H     -0.927431   -1.956782   -3.268258
H      0.077043   -0.478092   -3.210054
H     -1.702735    2.977573   -0.911782
H     -2.590398    3.576282    0.480607
H     -3.537300    2.292106    2.084706
H     -4.267689    0.040192    2.891389
H      1.841655    1.923009    0.155074
H      2.381176   -0.783254   -1.342607
H      1.627544    0.621690   -2.088325
H     -1.415962   -3.043822   -1.696829
H     -0.308836   -3.539760   -0.427931
H     -1.192030    0.492972   -1.959686
H     -0.222673    1.568744   -0.829400
H      1.191829   -2.189608   -1.281755
H     -3.121906   -4.952416    0.381905
