41

C      3.751454    1.355065    0.904057
C      4.726799    0.020317   -1.062115
C      0.051506   -2.823091    0.254808
C     -2.857907    2.718038   -1.569315
C     -3.958337    2.142273   -0.978313
C      2.643859   -0.635871   -0.026648
C      1.517349   -0.533451    0.957720
C     -1.612462   -1.377959    1.391623
C      0.006969    0.751743   -0.434044
C      3.658800    0.212833   -0.057963
C     -0.584485   -1.486020    0.253421
C     -1.416263    1.116736   -0.537589
C     -1.588517    2.231386   -1.368478
C     -3.804246    1.047060   -0.159866
C     -2.530019    0.552064    0.046432
C     -3.968726   -0.683126    1.187086
I      0.109960    3.072137   -2.242881
N     -4.646648    0.272621    0.546843
N      0.314519   -0.396229    0.267790
N     -2.679236   -0.505873    0.875519
O     -4.446253   -1.698171    2.030395
H      2.842532    1.961857    0.769078
H      3.835204    0.933461    1.937720
H      4.637307    1.967001    0.646470
H      4.552378    0.712880   -1.910142
H      4.683944   -1.038882   -1.466664
H      5.711206    0.168290   -0.579480
H      0.055117   -3.300822   -0.777746
H      1.111997   -2.870872    0.558313
H     -0.501853   -3.566654    0.876193
H     -3.012871    3.573638   -2.207648
H     -4.959022    2.519338   -1.132760
H      2.641520   -1.451674   -0.772085
H      1.566399   -1.313626    1.727428
H      1.710223    0.428097    1.520234
H     -1.133525   -0.983606    2.280175
H     -2.017222   -2.395744    1.520933
H      0.491906    0.791570   -1.464730
H      0.517790    1.627310    0.080695
H     -1.178936   -1.410305   -0.690399
H     -4.242213   -1.703741    3.030313
