43

C      2.432422   -3.214285   -1.428999
C      3.309870    3.214859    0.352740
C      3.294849    1.586805   -1.595077
C     -2.118542    1.983394   -1.060112
C      1.443574   -3.151296   -0.778631
C     -0.363304   -4.157723    0.539716
C     -1.516570   -4.084193    1.327049
C      1.201867    2.291197   -0.503862
C      0.465621    1.448732   -1.441839
C     -1.814285    0.728088    0.981543
C      0.432613   -0.690243   -0.367600
C      2.514444    2.378930   -0.564223
C     -1.572423    0.689414   -0.520883
C      0.251163   -3.074955    0.000524
C     -0.284298   -1.815092    0.232122
C     -2.035711   -2.821946    1.549349
C     -1.447915   -1.717707    1.025593
C     -3.174426   -1.015652    2.145189
N     -3.123448   -2.389004    2.258645
N     -0.292741    0.374707   -0.910744
N     -2.165716   -0.642659    1.405168
O     -4.137515   -0.212489    2.727633
H      3.358712   -3.254586   -2.043224
H      2.826526    3.400215    1.338405
H      3.527058    4.203992   -0.109073
H      4.311397    2.755955    0.545932
H      3.036617    0.522688   -1.397479
H      4.358535    1.688533   -1.408949
H      3.050406    1.916503   -2.603935
H     -1.532932    2.807589   -0.610495
H     -3.176367    2.085833   -0.659070
H     -2.230551    2.026395   -2.146224
H      0.036007   -5.165356    0.369420
H     -2.006583   -4.943105    1.760373
H      0.675720    2.856989    0.236611
H      1.217251    0.989676   -2.144067
H     -0.228136    2.117644   -2.006177
H     -2.702838    1.334557    1.188462
H     -0.925414    1.055398    1.523318
H      1.104724   -1.125193   -1.147447
H      1.134890   -0.280487    0.402948
H     -2.277723   -0.111762   -0.916652
H     -4.856829   -0.590361    3.344533
