41

C      4.383301   -0.457786    1.352045
C      3.725112    1.390877   -0.307032
C      0.312224   -2.696554   -0.857284
C     -2.609213    3.254555    0.869988
C     -3.793854    2.581687    0.700935
C      2.463865   -0.666836   -0.186091
C      1.518331   -0.245792   -1.246821
C     -1.823064   -1.681171   -0.530168
C      0.057238    0.848044    0.158919
C      3.477830    0.051738    0.272791
C     -0.377157   -1.456947   -0.328206
C     -1.327860    1.328522    0.309313
C     -1.388341    2.663802    0.684406
C     -3.736063    1.263599    0.330592
C     -2.507958    0.632936    0.133657
C     -4.086538   -0.836918   -0.252071
Br     0.273921    3.574022    0.910806
N     -4.668150    0.315748    0.080728
N      0.134781   -0.224664   -0.806650
N     -2.732052   -0.642554   -0.220243
O     -4.653351   -2.054946   -0.583642
H      5.319605    0.088429    1.366785
H      4.560209   -1.538250    1.117353
H      3.900919   -0.436097    2.344178
H      3.016634    2.121096    0.081191
H      4.791838    1.660973   -0.049592
H      3.696737    1.392583   -1.414722
H     -0.404555   -3.379185   -1.409109
H      0.691918   -3.354142   -0.037932
H      1.114983   -2.529606   -1.562677
H     -2.616747    4.300907    1.164254
H     -4.764463    3.035645    0.844294
H      2.334989   -1.656664    0.279925
H      1.683475   -0.709361   -2.221721
H      1.756001    0.850558   -1.432000
H     -2.021932   -2.126343   -1.556426
H     -2.102519   -2.546713    0.149422
H      0.693124    1.702458   -0.166442
H      0.474193    0.449660    1.111183
H     -0.197061   -1.465675    0.788639
H     -4.570350   -2.801635    0.117428
