58

C      4.033510   -1.157083    0.394666
C     -0.904212   -0.370671   -1.351387
C      1.693341   -0.291618    0.108995
C     -3.335992   -1.274941    1.071094
C      3.058152   -0.055047    0.297146
C     -2.392822   -0.616183   -1.077471
C     -2.493950   -0.225906    0.389755
C     -0.565023    0.509974   -0.167706
C      3.498353    1.240453    0.393288
C      1.292207    1.972327    0.121557
N     -3.806495    2.560872   -1.070770
N      2.612770    2.228977    0.304417
N     -3.217248    0.320188   -1.814711
N     -3.507287    1.424885   -1.380512
N      0.818238    0.719633    0.022175
O     -2.809661   -2.539178    0.876626
O      4.835557    1.554274    0.580020
O      0.540686    2.979853    0.051043
O     -1.184291   -0.205506    0.870205
C      3.049951   -1.105024    0.398349
C      1.861112   -1.106186   -0.346819
C     -3.127025    0.505601    0.763967
C     -1.091097   -1.075720   -0.684022
C      3.454732    0.051083    1.033343
C     -0.084446   -0.040655   -1.214151
C     -2.693689    0.500673   -0.675973
C      1.517576    1.108224    0.168510
N      4.548049    0.069408    1.724314
N      2.669766    1.134294    0.898935
N      1.109953   -0.004906   -0.454090
O     -4.223053   -0.350022    0.864060
O      0.803857    2.303413    0.115691
O     -2.327482   -0.723237   -1.145875
S     -1.128067    1.443569   -0.889158
H      4.442166   -1.447092   -0.603951
H      4.882760   -0.818160    1.003235
H      3.601730   -2.039175    0.911185
H     -0.399476   -1.350274   -1.309672
H     -0.808877    0.145831   -2.309361
H      1.389664   -1.326687    0.038572
H     -3.530394   -1.035357    2.136564
H     -4.328104   -1.256142    0.569215
H     -2.667031   -1.666886   -1.250950
H     -2.921501    0.763801    0.542207
H     -1.136562    1.445842   -0.294312
H     -1.840094   -2.539457    1.051504
H      5.149887    2.348456    1.099922
H      3.660742   -2.002095    0.485044
H      1.622251   -2.055928   -0.809787
H     -2.344410    0.102419    1.419816
H     -3.474726    1.503813    1.084088
H     -1.023724   -1.089898    0.424150
H     -0.830429   -2.057691   -1.111318
H      0.046738   -0.186047   -2.293406
H     -3.460785    0.940594   -1.319339
H      5.159841   -0.763917    1.832656
H     -4.910731   -0.167769    0.171782
H      1.215093    3.066005   -0.440766
