36

C     -2.536965    1.795653   -0.746903
C     -2.248746   -1.358679    2.372554
C      1.713431   -1.275085    0.661001
C      3.793965    1.544438   -0.486477
C      3.018128   -0.729122    0.137473
C      2.742952    0.777507    0.283778
C      0.771184   -0.113742    0.398303
C     -2.725344   -0.376010   -1.872074
C     -1.712740   -0.252604    0.420706
C     -0.533396   -1.109509   -1.535576
C     -2.701130    0.294011   -0.555732
Cl    -4.348152    0.093597    0.148276
F      4.096477   -1.103291    0.881536
N     -1.711816   -1.014138   -2.297560
N     -0.439054   -0.494602   -0.258426
O      4.992352    1.415145    0.208039
O     -3.906317   -0.296843   -2.662033
O      0.476505   -1.740010   -1.956959
O     -2.134248   -1.457609    0.968456
O      1.490384    0.834299   -0.319177
H     -2.981325    2.288774    0.149116
H     -1.496321    2.083639   -0.892761
H     -3.179466    2.069915   -1.606694
H     -1.252593   -1.096493    2.764524
H     -2.971126   -0.549364    2.642196
H     -2.646371   -2.317241    2.762851
H      1.752501   -1.440856    1.761439
H      1.364533   -2.135730    0.106456
H      3.525021    2.608626   -0.521163
H      3.930601    1.150672   -1.493625
H      3.116675   -0.925035   -0.944971
H      2.712683    1.085930    1.334791
H      0.500796    0.373269    1.385373
H     -1.567218    0.499303    1.220825
H      4.866699    1.363174    1.190255
H     -3.772558   -0.491992   -3.647819
