36

C     -2.626540    0.976334   -1.158742
C     -1.162030   -2.294723    1.626950
C      0.907557    0.506447   -1.342182
C      3.501008   -1.788956   -0.362173
C      2.328159    0.014019   -1.636840
C      2.800930   -0.442627   -0.276484
C      0.981770    0.632311    0.173209
C     -2.947651    1.585605    1.141033
C     -1.339542   -0.227093    0.615186
C     -0.676064    1.887790    1.620115
C     -2.643525    0.438658    0.264500
Cl    -4.010360   -0.708867    0.464232
F      3.122157    1.051659   -2.087252
N     -2.028773    2.221733    1.740870
N     -0.289692    0.784160    0.791548
O      4.636735   -1.592535   -1.150691
O     -4.304499    1.988621    1.318437
O      0.275159    2.507366    2.207873
O     -1.409712   -0.942055    1.798133
O      1.632125   -0.550497    0.509297
H     -2.647596    0.161925   -1.901813
H     -1.764663    1.629949   -1.330384
H     -3.541763    1.584442   -1.311832
H     -1.901870   -2.766203    0.924393
H     -0.116495   -2.507894    1.333855
H     -1.351021   -2.786724    2.608978
H      0.723330    1.483915   -1.811401
H      0.233279   -0.293974   -1.665062
H      3.800997   -2.077953    0.649487
H      2.801335   -2.478557   -0.853451
H      2.319933   -0.807964   -2.375327
H      3.450744    0.325359    0.190150
H      1.661546    1.455727    0.390492
H     -1.093205   -0.908085   -0.241367
H      5.134110   -0.786577   -0.891799
H     -4.455873    2.725262    1.972148
