42

C     -4.586757    0.741283    1.793195
C     -3.974859    1.313194   -0.586234
C     -0.039870   -2.245496   -1.700113
C      2.911187    2.633872    0.033384
C      4.130811    1.792184    0.015977
C     -2.797481   -0.437474    0.731764
C     -1.790686   -0.853370   -0.259687
C      0.499652    2.832817   -0.555642
C      1.448067   -2.230357    0.419862
C      0.006528    0.609854    0.455459
C     -3.692930    0.499857    0.588271
C      0.475444   -1.490661   -0.493643
C      1.803525    2.105073    0.158206
C      1.401273    0.771460    0.330304
C      3.867824    0.443756    0.168294
C      2.597334   -0.023862    0.321005
C      3.894087   -1.785849    0.265290
N     -0.425904    3.358974   -1.043710
N      4.681568   -0.679589    0.146325
N     -0.453151   -0.772738    0.274879
N      2.628068   -1.407351    0.366841
O      4.319538   -2.991454    0.274612
H     -5.019229    1.733739    1.860052
H     -4.100331    0.426486    2.704519
H     -5.443347    0.030515    1.549610
H     -4.482226    2.295903   -0.382251
H     -4.672899    0.784862   -1.287060
H     -3.037804    1.589984   -1.145528
H     -0.686788   -1.530380   -2.263712
H      0.861487   -2.369818   -2.407513
H     -0.483173   -3.212280   -1.540556
H      3.138604    3.714021   -0.067744
H      5.063501    2.224231   -0.142422
H     -2.757877   -1.020494    1.670140
H     -2.034734   -1.829408   -0.623391
H     -1.850930   -0.226884   -1.222976
H      1.625521   -3.282123    0.085079
H      1.073308   -2.260460    1.496529
H     -0.349999    0.960304    1.436971
H     -0.549107    1.205876   -0.363938
H      1.106014   -0.659973   -1.056752
H      5.696743   -0.758227   -0.003693
