36

C     -2.207183   -0.458029    1.948328
C     -2.209551    2.826773   -0.630566
C      1.464295   -0.264830    0.996595
C      3.635485   -0.667194   -1.320125
C      2.892062    0.262700    0.802261
C      2.917599    0.518362   -0.663701
C      0.755649    0.560231   -0.086131
C     -2.695199   -1.634418   -0.092054
C     -1.799648    0.607336   -0.280760
C     -0.532394   -1.327490   -1.042357
C     -2.676141   -0.288265    0.522867
Cl    -4.320570    0.410609    0.597052
F      3.043359    1.466763    1.483911
N     -1.730326   -2.078923   -0.784935
N     -0.508976   -0.023384   -0.453599
O      4.924951   -0.776583   -0.828842
O     -3.851970   -2.397338    0.137432
O      0.421672   -1.768899   -1.725628
O     -1.684572    1.887650    0.254962
O      1.643929    0.644169   -1.134286
H     -2.050049    0.489954    2.470363
H     -1.329971   -1.127917    2.001602
H     -3.028953   -0.996210    2.490293
H     -2.146847    3.849020   -0.264105
H     -3.224287    2.539461   -0.985343
H     -1.559429    2.773896   -1.549870
H      1.496990   -1.326319    0.726485
H      1.099620   -0.039776    1.997179
H      3.077992   -1.590352   -1.031041
H      3.593924   -0.505694   -2.400661
H      3.640501   -0.489554    1.123720
H      3.560152    1.410627   -0.920565
H      0.624472    1.568195    0.356600
H     -2.292549    0.697655   -1.293971
H      4.960663   -1.449989   -0.103864
H     -3.904699   -3.302237   -0.317247
