32

C      3.701679    0.204992   -0.218002
C      2.367492    0.557423   -0.407059
C     -1.012154   -0.168795    0.943271
C     -3.441973   -0.476725    0.432255
C     -2.257100    0.453572    0.276655
C      0.054689    0.415555    0.088222
C      4.035378   -0.721436    0.745515
C     -1.879312    0.629283   -1.178526
C     -0.477300    0.017293   -1.294346
C      1.729722   -0.879415    1.257185
N      5.268514   -1.090056    0.967088
N      3.028203   -1.242309    1.462925
N      1.381437    0.015412    0.330272
O     -4.524030    0.132212   -0.182373
O     -1.738490    1.971274   -1.525030
O      0.235734    0.558464   -2.324486
O      0.761893   -1.454751    2.028583
H      4.489247    0.649691   -0.819834
H      2.126410    1.290854   -1.172169
H     -1.171859   -1.271945    0.758531
H     -0.977531    0.094499    2.002325
H     -3.216059   -1.436383   -0.075464
H     -3.600400   -0.702022    1.490311
H     -2.424732    1.404293    0.802569
H     -0.092010    1.536830    0.115009
H     -2.587482    0.115983   -1.856845
H     -0.628538   -1.070066   -1.361750
H      6.024288   -0.662725    0.388882
H     -4.491022    1.129253   -0.089426
H     -1.708828    2.579545   -0.766255
H      0.336167   -0.124321   -3.034522
H      0.687966   -2.455479    2.216490
