35

C      4.466626    0.890577    1.095852
C      3.643539   -1.128601   -0.193060
C     -3.162183   -2.122240    1.433222
C     -2.179867   -2.871352    2.041664
C     -3.923762    1.956096   -1.282256
C     -2.957186    2.837192   -1.721672
C     -3.715247   -0.173368    0.110983
C      1.242950    0.503106   -0.958842
C     -2.790448   -0.990589    0.755634
C     -3.290714    0.953316   -0.556545
C      2.532206    1.207431   -0.517948
C     -0.868868   -2.451324    1.942869
C     -1.951256    1.279360   -0.591343
C     -1.461946   -0.652297    0.711552
C     -1.022699    0.477899    0.043686
C      3.642326    0.370430   -0.054671
O     -0.010897   -3.188248    2.527310
O     -1.816651    2.397453   -1.291098
O      0.285898    0.843665   -0.020606
O     -0.525169   -1.365052    1.290743
O      3.665020    1.050025   -1.268310
H      3.759387    1.095307    1.935176
H      4.946862    1.830015    0.747410
H      5.233651    0.165613    1.371925
H      3.299417   -1.441271   -1.201238
H      4.684040   -1.501489   -0.028423
H      3.001064   -1.596566    0.575394
H     -4.209754   -2.367182    1.453982
H     -2.462296   -3.780694    2.588255
H     -4.981512    1.971803   -1.430023
H     -3.162353    3.727325   -2.319420
H     -4.751296   -0.441303    0.147999
H      1.448364   -0.585031   -1.030457
H      0.969290    0.891297   -1.963373
H      2.423463    2.208697   -0.052955
