30

C     -0.867068   -0.869871    0.871974
C     -0.528614    0.801383   -0.735735
C      2.230882    0.999262    0.128251
C     -3.340836   -1.196933    0.658923
C     -2.213572   -0.199482    0.602961
C      0.029491    0.274736    0.574990
C      3.583745    0.864714    0.026214
C     -1.965414    0.306868   -0.803784
C      4.160931   -0.356145    0.328842
C      2.001344   -1.172017    0.798372
I      4.830366    2.473092   -0.583286
N      3.345321   -1.349458    0.710032
N      1.423988   -0.008847    0.512925
O     -4.519883   -0.514207    0.406109
O     -2.829090    1.325856   -1.165829
O      5.549657   -0.513972    0.229968
O      1.261365   -2.119521    1.157985
H     -0.868556   -1.198613    1.921953
H     -0.809203   -1.696085    0.143896
H      0.090588    0.347545   -1.541324
H     -0.485864    1.902437   -0.789508
H      1.821213    1.989541   -0.123324
H     -3.240226   -1.991285   -0.098949
H     -3.389496   -1.574956    1.697788
H     -2.416177    0.617402    1.303271
H     -0.145097    1.062076    1.335578
H     -2.002801   -0.561936   -1.493726
H     -4.460268    0.401005    0.820380
H     -2.296118    2.093799   -1.536751
H      6.049392   -0.136388   -0.576881
