28

C      2.895104    1.278004    1.136485
C      1.535486    1.030678    0.905846
C     -0.615456   -1.477276   -0.340844
C     -3.424726    0.255710    1.135984
C     -2.332338    0.080012    0.102072
C      3.855015    0.711681    0.323633
C     -0.240682   -0.024049   -0.358832
C      2.076436   -0.299814   -0.883998
C     -2.131319   -1.390104   -0.236833
F     -2.745311   -1.614601   -1.446861
F     -2.610920   -2.210530    0.761639
N      5.131742    0.908327    0.493314
N      3.406397   -0.069670   -0.673911
N      1.132899    0.241398   -0.105357
O     -3.482770    1.626542    1.422223
O      1.664554   -1.115290   -1.929055
O     -1.098473    0.519562    0.580390
H      3.224165    1.911602    1.947817
H      0.815307    1.486891    1.556958
H     -0.264009   -2.019974    0.532790
H     -0.410174   -1.995470   -1.309651
H     -3.114800   -0.236713    2.079393
H     -4.379088   -0.160226    0.806096
H     -2.542108    0.677040   -0.809629
H     -0.576942    0.377462   -1.358570
H      5.522730    1.492835    1.235667
H     -3.305158    2.097909    0.567591
H      2.014440   -2.081934   -1.924226
