42

C      3.602079    0.072916    1.378886
C      4.236721    0.562876    0.099201
C     -1.988070    2.522593    1.823541
C     -1.144561    1.471094    1.535515
C     -3.121423    2.622621    1.070100
C      3.027014   -1.301295    1.099438
C      3.556528   -0.077043   -1.072494
C     -0.841322   -1.293968   -0.847112
C     -1.428264    0.551774    0.530994
C     -0.534648   -0.449943    0.207128
C     -3.438945    1.718308    0.061232
C      1.835977   -1.241032    0.177468
C     -2.002977   -1.179913   -1.587768
C     -2.579688    0.654340   -0.221402
C      0.689014   -0.593729    1.003713
C     -4.671494    1.865201   -0.748361
C     -2.325522   -2.117823   -2.725190
F     -5.325598    3.025732   -0.321887
F     -4.368280    2.049982   -2.085325
F     -5.583837    0.832496   -0.545939
F     -2.067987   -3.440341   -2.363929
F     -3.706020   -2.056679   -2.960600
F     -1.700892   -1.778324   -3.894937
N      2.147055   -0.294286   -0.915058
N     -2.861266   -0.191202   -1.253159
O      0.424926   -1.553219    2.009267
H      2.896413    0.815615    1.744225
H      4.410261   -0.017665    2.170075
H      4.256287    1.683629    0.048511
H      5.313009    0.196642    0.155731
H     -1.691964    3.195578    2.629313
H     -0.233056    1.383042    2.127020
H     -3.805999    3.431610    1.231590
H      3.870760   -1.863381    0.631041
H      2.730214   -1.774195    2.068041
H      3.690428    0.618903   -1.969258
H      4.094523   -1.008050   -1.326011
H     -0.178181   -2.102884   -1.155374
H      1.588098   -2.237279   -0.183359
H      1.093896    0.331396    1.345767
H      1.732811   -0.597226   -1.816972
H      0.403980   -2.436872    1.512354
