46

C     -3.655964    2.978773    1.444763
C      5.244638    1.495250   -2.172536
C     -2.155672   -1.045750   -1.006529
C     -3.421103   -0.753927   -1.509277
C      2.481322   -1.634340    0.578900
C     -2.325304    0.798400    0.421386
C      3.165307    0.238545   -0.828175
C      0.632015    1.290587   -0.897635
C     -0.834279   -2.857815    1.347370
C     -1.580447   -0.271229   -0.026483
C      2.107238   -0.387326   -0.153094
C      0.840036    0.136269   -0.186091
C      1.358369   -2.068600    1.449518
C      0.093053   -2.002598    0.574429
C     -4.140770    0.305056   -1.055404
C      1.672178    1.915974   -1.567964
C     -3.579743    1.106536   -0.061377
C      2.934724    1.385457   -1.529252
C     -0.259019   -0.537376    0.530483
C      1.340618   -3.470480    1.837626
O     -5.414511    0.640292   -1.527075
O      1.408541    3.066165   -2.263043
O      2.318924   -4.216411    2.040184
O     -4.267917    2.199069    0.438814
O      3.956972    2.054188   -2.223815
O      0.015396   -3.849035    1.947707
H     -3.511269    2.393147    2.355600
H     -2.707142    3.370816    1.017234
H     -4.350354    3.835110    1.644629
H      5.998527    2.218870   -2.568819
H      5.566907    1.289505   -1.119131
H      5.331675    0.589860   -2.810085
H     -1.592068   -1.887619   -1.372353
H     -3.832447   -1.383942   -2.273192
H      3.398335   -1.408264    1.196033
H      2.790404   -2.447622   -0.103900
H     -1.881205    1.426151    1.202701
H      4.169452   -0.170801   -0.805702
H     -0.357604    1.734833   -0.946757
H     -1.448363   -2.335585    2.075362
H     -1.488748   -3.433685    0.637923
H      1.198444   -1.370521    2.301699
H      0.335097   -2.356118   -0.429117
H     -0.181037   -0.182439    1.602012
H     -5.874381    0.114193   -2.233457
H      0.501173    3.488441   -2.317963
