44

C     -2.358463    2.593996   -0.103882
C     -4.199251    1.027980   -0.382357
C     -3.114955   -2.307327   -0.512655
C      1.733387    1.296323    0.361233
C      4.611308   -0.935371   -0.007149
C     -2.676540    1.157183   -0.516992
C      3.172981    0.927910    0.621368
C      3.386348   -0.157447   -0.425419
C      1.189156    0.022945   -0.269027
C     -1.615744   -2.482075    1.402816
C     -1.257991   -0.652774   -0.241131
C      0.094459   -0.915697    1.789864
C     -1.695848   -2.083203   -0.018540
Cl    -0.617612   -3.149236   -0.956312
N      3.426583    4.192526   -0.461875
N     -0.791400   -1.944575    2.235235
N      4.085253    1.997664    0.298286
N      3.712386    3.157108    0.163883
N      0.043140   -0.507875    0.429803
O      5.722372   -0.105406   -0.154697
O     -2.495683   -3.496614    1.824041
O      0.917686   -0.360560    2.563176
O     -2.123645    0.246505    0.358705
O      2.223416   -0.879953   -0.321153
H     -2.605720    2.656858    0.991391
H     -1.330910    2.879554   -0.328991
H     -3.124780    3.228774   -0.606064
H     -4.552182    0.172698   -0.965057
H     -4.387213    0.839382    0.702214
H     -4.699649    1.974263   -0.668489
H     -3.828573   -2.010946    0.258604
H     -3.206962   -3.395567   -0.705182
H     -3.273480   -1.791010   -1.485575
H      1.154284    1.538309    1.258762
H      1.704940    2.120033   -0.386294
H      4.717151   -1.832160   -0.634186
H      4.508419   -1.175585    1.077336
H     -2.362191    1.049843   -1.555458
H      3.342510    0.490944    1.605865
H      3.513202    0.324218   -1.413127
H      0.881812    0.253168   -1.319492
H     -1.156121   -0.486346   -1.329840
H      5.617386    0.508743   -0.932274
H     -2.283265   -3.987203    2.698635
