44

C      3.765759   -1.746764    1.107321
C      1.468585   -2.646846    1.307466
C      3.718532    1.516220    0.340296
C     -1.934812   -0.753890    0.347220
C     -3.791179    0.760397   -2.431932
C      2.309900   -1.516577    0.767871
C     -3.233047   -0.651713   -0.464055
C     -2.702137   -0.020299   -1.739796
C     -0.979669    0.067597   -0.446719
C      1.819956    2.757715    1.158564
C      1.439203    0.528672    0.105096
C     -0.275077    1.761592    1.314867
C      2.226654    1.808816    0.122955
Br     2.058695    2.738644   -1.589074
N     -6.002683   -2.517051   -1.457514
N      0.672048    2.733201    1.702787
N     -3.757768   -1.965518   -0.668348
N     -4.926036   -2.162861   -0.969798
N      0.005870    0.790005    0.322800
O     -4.752788   -0.044637   -2.991185
O      2.784683    3.723072    1.532290
O     -1.435093    1.714271    1.842752
O      1.848175   -0.271117    1.139522
O     -1.778301    0.877237   -1.206743
H      4.076569   -1.159102    2.011507
H      4.412212   -1.512865    0.237661
H      3.873363   -2.810827    1.405420
H      0.686805   -2.908687    0.594442
H      2.144589   -3.532835    1.395085
H      1.090885   -2.444722    2.333473
H      4.281459    2.468625    0.269023
H      4.092209    0.784085   -0.372521
H      3.831969    1.139838    1.369749
H     -1.576014   -1.825926    0.297196
H     -2.052838   -0.418091    1.371044
H     -3.358963    1.409686   -3.219249
H     -4.215269    1.455768   -1.656522
H      2.234163   -1.568490   -0.346194
H     -3.932059    0.062262   -0.011466
H     -2.170440   -0.719897   -2.384352
H     -0.395532   -0.598247   -1.160940
H      1.532447    0.078441   -0.889786
H     -5.636758    0.250310   -2.662909
H      2.531735    4.370506    2.272696
