44

C     -1.710449   -2.384599    0.990032
C     -3.664781   -1.357561   -0.029408
C     -3.149907    1.868203   -0.808436
C      1.955205    0.757477   -0.870451
C      3.009177   -2.687191   -0.085839
C     -2.170798   -1.210875    0.124075
C      2.926197   -0.395249   -1.108294
C      2.743424   -1.224470    0.126494
C      1.436484    0.420164    0.525907
C     -1.902911    2.941839    0.931095
C     -1.025659    0.796952   -0.039319
C     -0.090497    1.867149    1.915448
C     -1.727995    2.113351   -0.274054
Br    -0.803581    3.118620   -1.651038
N      5.697942   -0.138913   -3.096492
N     -1.131054    2.805876    1.925574
N      4.249381    0.164284   -1.182137
N      4.885124    0.264101   -2.236906
N      0.168839    1.010032    0.802608
O      4.305883   -2.969334   -0.426469
O     -2.954879    3.892143    0.947736
O      0.697424    1.723472    2.917824
O     -1.884706   -0.004543    0.719047
O      1.417415   -0.969073    0.471573
H     -1.624136   -1.983182    2.026350
H     -0.704228   -2.717237    0.677943
H     -2.446658   -3.201342    0.986674
H     -4.192262   -0.838034    0.817722
H     -4.046039   -1.028973   -1.004034
H     -3.975389   -2.433423    0.076080
H     -3.794404    1.607244    0.031927
H     -3.129254    1.103074   -1.613321
H     -3.544884    2.792247   -1.279749
H      1.139388    0.703641   -1.601688
H      2.455488    1.724670   -0.831689
H      2.325812   -3.054579   -0.879238
H      2.723203   -3.217840    0.844789
H     -1.676941   -1.350564   -0.854079
H      2.646708   -0.946247   -2.037160
H      3.387875   -0.807033    0.923746
H      2.162018    0.718618    1.280150
H     -0.756336    0.288292   -0.964896
H      4.774756   -2.254518   -0.924758
H     -2.999996    4.493329    1.769871
