59

C      6.648476    0.735890   -2.100091
C      0.553552   -2.364531    2.815704
C      5.676609    1.140282   -1.011925
C      4.692870    2.172759   -1.514091
C      3.873669    1.677879   -2.667638
C      3.055610    0.457942   -2.323975
C      2.087187    0.741476   -1.192638
C      1.320247   -0.504506   -0.913702
C      0.317586   -0.363069    0.192807
C     -3.838693    0.371221    1.756977
C     -3.171401    2.501742   -1.081990
C     -4.147439    1.667638    1.027681
C     -3.844672    1.305839   -0.420920
C     -3.584724   -0.579404    0.631380
C     -1.383118   -3.734492    2.369167
C     -1.310828   -1.395940    1.460168
C     -2.989102   -3.032030    0.845422
C     -0.963208   -2.341358    2.576222
Cl    -1.666602   -1.698810    4.093434
N     -7.256556    1.418623   -0.517966
N     -2.318261   -4.031231    1.567887
N     -5.540493    2.034876    1.115505
N     -6.325575    1.556836    0.298382
N     -2.666771   -1.651885    0.965004
O     -2.772040    2.216413   -2.371459
O     -0.691947   -4.717992    3.107462
O     -3.939684   -3.301603    0.028002
O     -0.380760   -1.533696    0.431922
O     -3.006878    0.218070   -0.350168
H      7.281201   -0.086954   -1.661392
H      6.123464    0.307652   -2.958961
H      7.311952    1.582060   -2.391506
H      0.842011   -3.281600    3.372606
H      1.019890   -2.454875    1.816260
H      0.885560   -1.502314    3.399214
H      5.186899    0.217518   -0.649530
H      6.282978    1.633685   -0.213568
H      5.299625    3.028495   -1.886678
H      4.037231    2.556934   -0.737099
H      3.153021    2.481574   -2.928302
H      4.514620    1.421593   -3.534155
H      2.464528    0.196121   -3.233550
H      3.666402   -0.414971   -2.058760
H      2.732722    0.973023   -0.295318
H      1.467703    1.625066   -1.382712
H      0.778323   -0.803417   -1.833982
H      2.059963   -1.318090   -0.713876
H     -0.297751    0.512716   -0.007190
H      0.903571   -0.156761    1.135425
H     -2.999065    0.476337    2.445564
H     -4.794222    0.097200    2.294997
H     -3.884265    3.349065   -1.138708
H     -2.273423    2.742202   -0.491408
H     -3.482376    2.492255    1.353931
H     -4.771834    1.108364   -0.991518
H     -4.554852   -1.021824    0.275789
H     -1.248097   -0.352588    1.826495
H     -3.062485    1.296748   -2.638726
H     -1.070347   -5.672153    3.079365
