59

C      4.799835    2.500444   -2.685710
C     -0.401162   -3.967675    0.735858
C      4.504867    1.116768   -2.153361
C      5.166927    0.995297   -0.795089
C      4.947570   -0.336847   -0.158416
C      3.469868   -0.640061    0.062769
C      2.853171    0.388586    0.953471
C      1.385949    0.092818    1.140142
C      1.182344   -1.256238    1.768888
C     -2.462057    1.740548    0.959575
C     -5.342058    1.639938   -0.121517
C     -3.003826    2.552579   -0.237856
C     -3.979988    1.526332   -0.777288
C     -2.328020    0.417710    0.276884
C     -2.566445   -3.343861    1.652236
C     -0.968794   -1.567817    0.901290
C     -3.164843   -1.132271    2.000296
C     -1.541798   -2.976444    0.675445
Cl    -2.248237   -2.978525   -0.956053
N     -2.200449    4.372540   -2.996153
N     -3.343621   -2.536136    2.293340
N     -1.969353    2.738547   -1.227560
N     -1.929338    3.702007   -1.988761
N     -2.175316   -0.731717    1.053724
O     -6.148639    0.658955   -0.700405
O     -2.729846   -4.714831    1.928521
O     -3.832558   -0.222846    2.530829
O     -0.143558   -1.524327    1.977442
O     -3.418782    0.290854   -0.580273
H      4.165348    3.224501   -2.167606
H      4.633473    2.574444   -3.779869
H      5.883363    2.698050   -2.504015
H     -0.837917   -4.976441    0.480457
H      0.015025   -4.070924    1.742260
H      0.360960   -3.775538   -0.046239
H      3.419532    0.988016   -2.098680
H      4.966021    0.391434   -2.854079
H      4.885597    1.827042   -0.124831
H      6.259779    1.098385   -0.972836
H      5.364511   -1.146304   -0.757420
H      5.419728   -0.335028    0.828202
H      2.927184   -0.782202   -0.878326
H      3.465596   -1.616130    0.614688
H      3.399809    0.388377    1.921315
H      3.005298    1.434351    0.557504
H      1.018649    0.908958    1.834938
H      0.825237    0.225233    0.190435
H      1.594748   -2.006713    1.025170
H      1.767514   -1.271277    2.704663
H     -3.236122    1.834484    1.713805
H     -1.491219    2.189096    1.201888
H     -5.328874    1.468195    0.953423
H     -5.822408    2.610028   -0.333115
H     -3.478919    3.476755    0.096384
H     -4.148369    1.757717   -1.866720
H     -1.438210    0.529338   -0.414318
H     -0.412673   -1.350883   -0.019691
H     -6.313136   -0.106631   -0.125757
H     -3.281366   -4.990659    2.716934
