41

C     -3.117755    2.788996   -0.922524
C     -2.891714   -2.293333    1.269400
C     -2.630330    1.750384    0.081087
C      1.472750    1.030359   -0.621615
C      3.827086   -0.293636    1.879630
C      2.869250    0.737685   -0.185382
C      2.656277    0.433456    1.293981
C      0.647035    0.267204    0.372817
C     -2.149256   -2.584176   -0.989966
C     -1.728917   -0.382867    0.146936
C     -0.037708   -1.619509   -1.094947
C     -2.590813   -1.565690   -0.053321
Cl    -4.203548   -1.001804   -0.625771
N      6.110379    1.292865   -1.046404
N     -0.972544   -2.614195   -1.473722
N      3.792691    1.811226   -0.388364
N      4.928238    1.608778   -0.818661
N     -0.342727   -0.578784   -0.196123
O      4.906015    0.560744    1.979953
O     -3.047059   -3.570105   -1.377243
O      1.114192   -1.681408   -1.592438
O     -2.207453    0.660266   -0.641432
O      1.552195   -0.446075    1.192840
H     -2.560523    2.725358   -1.876440
H     -2.942061    3.797339   -0.503181
H     -4.193663    2.652254   -1.164474
H     -3.645352   -1.740909    1.855326
H     -3.352699   -3.272901    1.007159
H     -1.965698   -2.518252    1.819978
H     -3.529644    1.484457    0.690144
H     -1.897322    2.167381    0.776051
H      1.327590    2.141190   -0.538156
H      1.258510    0.777725   -1.668552
H      4.046391   -1.162572    1.221531
H      3.545151   -0.612437    2.904566
H      3.292581   -0.185002   -0.625809
H      2.407029    1.336396    1.863176
H      0.191624    1.022042    1.055605
H     -1.813081   -0.054780    1.205873
H      4.653752    1.513037    1.974985
H     -2.778868   -4.380708   -1.912255
