41

C      1.794250    2.584435   -0.579683
C      3.894876   -1.179190    0.825165
C      2.933493    1.634354   -0.887936
C     -1.663092   -0.471382    1.096301
C     -3.745533    0.966692   -1.572903
C     -2.982901   -0.358007    0.384360
C     -2.775945    0.907994   -0.415420
C     -0.732979    0.259364    0.199022
C      2.160984   -2.598076   -0.247715
C      1.760673   -0.169184    0.000470
C      0.148332   -1.711428   -1.045717
C      2.425479   -1.409780    0.553943
Br     1.603696   -1.716258    2.303583
N     -3.978878    1.126213    3.334088
N      1.124927   -2.722679   -0.967735
N     -4.090635   -0.150094    1.284203
N     -3.974626    0.257973    2.439044
N      0.376003   -0.516677   -0.268784
O     -5.048259    1.043988   -1.085734
O      3.076367   -3.682727   -0.249778
O     -0.893882   -1.804351   -1.750855
O      2.422995    0.382210   -1.051939
O     -1.458457    0.830122   -0.842354
H      0.908054    2.239326   -1.119201
H      2.064700    3.637818   -0.814241
H      1.568993    2.564538    0.504365
H      4.399548   -2.159315    0.953966
H      4.401970   -0.701892   -0.053158
H      4.066401   -0.613985    1.765016
H      3.437458    2.042213   -1.782313
H      3.690256    1.708194   -0.069324
H     -1.433946   -1.548118    1.210193
H     -1.695172   -0.046163    2.125185
H     -3.658918   -0.010072   -2.116458
H     -3.519786    1.769883   -2.273674
H     -3.123711   -1.254833   -0.252951
H     -2.921593    1.762859    0.246577
H     -0.331017    1.137693    0.775735
H      1.757657    0.561935    0.834954
H     -5.074387    1.655543   -0.306639
H      3.086605   -4.249132   -1.081659
