41

C     -2.127062   -3.222169    1.508729
C     -1.973904    1.820638    1.525774
C     -2.312089   -2.138702    0.493825
C      1.533651    1.011690    0.274320
C      3.644718   -0.589596   -1.809167
C      2.826343    0.215340    0.338974
C      2.605158   -0.829367   -0.711892
C      0.598242   -0.005346   -0.286045
C     -2.762400    2.195676   -0.741735
C     -1.922568   -0.012143   -0.173907
C     -0.768999    1.457942   -1.735581
C     -2.670289    1.186346    0.327668
Cl    -4.279694    0.688212    0.896825
N      4.800344   -0.127063    3.080161
N     -1.902638    2.326631   -1.682675
N      2.871038   -0.419322    1.643681
N      3.699290   -0.110941    2.494797
N     -0.649835    0.471406   -0.723910
O      4.933418   -0.774295   -1.334007
O     -3.848683    3.078929   -0.752076
O      0.124665    1.510499   -2.614450
O     -1.695775   -0.956658    0.826113
O      1.361353   -0.626450   -1.264555
H     -2.029452   -2.851294    2.548150
H     -1.243486   -3.877223    1.274476
H     -3.004714   -3.900389    1.466880
H     -1.227981    2.577566    1.221825
H     -2.770964    2.387841    2.081191
H     -1.585657    1.068362    2.230766
H     -3.411578   -1.979324    0.359377
H     -1.885440   -2.523406   -0.473077
H      1.274206    1.337227    1.299979
H      1.717643    1.872992   -0.369059
H      3.416686   -1.243876   -2.672754
H      3.550717    0.485545   -2.074758
H      3.710985    0.840165    0.154262
H      2.734372   -1.843877   -0.270462
H      0.427235   -0.775155    0.514684
H     -2.544416   -0.467324   -0.978375
H      4.992879   -0.743656   -0.352595
H     -4.205319    3.484572   -1.610247
