38

C     -3.046707   -0.825757    0.868527
C     -1.853769    2.801083    0.980442
C      1.842568    0.740370   -0.731768
C      2.870098   -1.930653    1.619043
C      2.868046   -0.280262   -0.269628
C      2.280719   -0.655827    1.076192
C      0.643190    0.386073    0.111016
C     -2.931331   -0.998700   -1.511390
C     -1.807445    0.922155   -0.359240
C     -0.622429   -0.775074   -1.634887
C     -2.973095   -0.005758   -0.432721
I     -4.822925    1.042758   -0.611888
N      4.463013    2.696408   -0.399867
N     -1.850653   -1.339068   -2.048941
N      4.163113    0.320058   -0.043624
N      4.429024    1.473028   -0.401448
N     -0.574058    0.194887   -0.598791
O      2.772984   -2.977826    0.731446
O     -4.110352   -1.601332   -1.976711
O      0.460345   -1.159748   -2.218161
O     -1.731702    1.414459    0.944233
O      0.948772   -0.795464    0.779056
H     -2.972780   -0.090377    1.696398
H     -4.015808   -1.336906    0.962205
H     -2.205059   -1.533051    0.826855
H     -1.064502    3.308629    0.404444
H     -1.810619    3.105263    2.045786
H     -2.879652    3.085040    0.622363
H      1.677642    0.748873   -1.805497
H      2.242955    1.735023   -0.363898
H      2.280939   -2.198785    2.523283
H      3.906512   -1.742985    1.980720
H      2.889798   -1.130915   -0.946801
H      2.442689    0.159002    1.785265
H      0.492250    1.177082    0.904676
H     -1.949239    1.743942   -1.090134
H      3.657459   -3.074401    0.273530
H     -4.109994   -2.601243   -2.222977
