41

C      2.589220   -2.095295    1.348188
C      2.428324    1.980551    1.847526
C      1.424169   -1.095323    1.328647
C     -2.107647    0.548841   -0.645873
C     -1.956094   -3.126395   -0.890155
C     -2.413521   -0.810424   -0.060266
C     -2.000597   -1.671260   -1.233295
C     -0.881401    0.234567   -1.478239
C      1.988299    3.011920   -0.288091
C      0.819234    0.894220    0.296699
C      0.958327    1.808276   -1.980716
C      1.360555    2.220313    0.773752
Br    -0.028733    3.303449    1.573406
N     -5.285035    1.019607    0.335528
N      1.830918    2.855503   -1.540420
N     -3.806823   -0.963905    0.274755
N     -4.456201    0.096105    0.412788
N      0.285518    0.965545   -1.043121
O     -1.387869   -3.911441   -1.858143
O      2.846546    4.042795    0.117525
O      0.757421    1.598336   -3.210842
O      1.760588   -0.107545    0.445522
O     -0.705989   -1.143263   -1.448771
H      2.892130   -2.335137    0.299659
H      2.332069   -3.014722    1.876781
H      3.467853   -1.622453    1.851516
H      3.173873    1.219066    1.474794
H      3.017698    2.894012    2.030992
H      1.978159    1.639275    2.798834
H      1.314846   -0.739859    2.367748
H      0.539380   -1.694726    1.043977
H     -2.918745    0.866637   -1.330658
H     -1.907474    1.302884    0.136252
H     -1.463606   -3.234563    0.102023
H     -3.004250   -3.460010   -0.743197
H     -1.745907   -1.018173    0.799929
H     -2.606558   -1.410081   -2.098357
H     -1.074439    0.471760   -2.566810
H     -0.028600    0.640664    0.965994
H     -1.258579   -4.818440   -1.499366
H      3.272937    4.658692   -0.586516
