38

C     -2.194323    0.166421   -1.574834
C     -1.148257   -2.370705    1.639620
C      1.476825    0.212326    1.556840
C      2.918422   -0.114855   -1.846165
C      2.390398   -0.512005    0.565164
C      2.312290    0.487166   -0.598879
C      0.591983    1.004229    0.623697
C     -3.460186    1.183185    0.179604
C     -1.584361   -0.243881    0.816821
C     -1.536448    2.131701    1.173083
C     -2.709125   -0.028232   -0.148701
I     -4.081679   -1.662731   -0.078142
N      4.883586   -2.766291    1.404845
N     -2.919630    2.174249    0.782962
N      3.729321   -0.648134    1.062567
N      4.187942   -1.764687    1.230800
N     -0.791376    0.937987    0.869621
O      2.661369    0.674972   -2.957293
O     -4.839177    1.275457   -0.178503
O     -1.052030    3.126762    1.750810
O     -0.929386   -1.435650    0.649390
O      0.932748    0.626202   -0.691247
H     -1.786332    1.188946   -1.715754
H     -3.084287    0.102433   -2.242509
H     -1.405783   -0.542591   -1.835120
H     -2.213745   -2.670786    1.740243
H     -0.911707   -1.886071    2.610605
H     -0.487619   -3.252774    1.558261
H      2.105696    0.925474    2.136957
H      0.926814   -0.484472    2.169511
H      4.020537   -0.128652   -1.696065
H      2.618265   -1.173043   -1.977124
H      1.917763   -1.452396    0.258018
H      2.805922    1.418642   -0.308412
H      0.918151    2.085078    0.680036
H     -2.104056   -0.350699    1.819496
H      3.066606    1.557459   -2.779496
H     -5.225130    2.209968   -0.185864
