38

C     -3.832963    1.004442   -0.086192
C     -1.094313    2.503194    0.795358
C      0.911411   -1.426036    0.573681
C      3.828339    0.804731    0.850120
C      2.334900   -1.192060    1.098333
C      2.837296   -0.115942    0.189120
C      0.895020   -0.530145   -0.629762
C     -3.060506   -0.317391   -1.944074
C     -1.390618    0.491550   -0.261789
C     -0.786889   -0.453406   -2.431519
C     -2.783790   -0.016423   -0.540269
Br    -3.149349   -1.634697    0.490567
N      2.690557   -4.560323    1.809674
N     -2.146461   -0.515856   -2.802293
N      3.161853   -2.365682    0.899149
N      2.977388   -3.427904    1.464471
N     -0.401792   -0.165656   -1.083405
O      3.339193    1.403799    1.981891
O     -4.393851   -0.386944   -2.346694
O      0.144460   -0.651872   -3.287999
O     -1.373743    1.869389   -0.426413
O      1.676358    0.545802   -0.201261
H     -3.479093    2.041555   -0.235385
H     -4.758931    0.886877   -0.694673
H     -4.119160    0.817599    0.956632
H     -0.101506    2.151604    1.138848
H     -1.021738    3.593727    0.681136
H     -1.862506    2.246688    1.557877
H      0.845451   -2.505042    0.303348
H      0.187418   -1.155688    1.351867
H      4.032855    1.628904    0.107019
H      4.797213    0.288199    0.983074
H      2.347390   -0.941359    2.161271
H      3.251141   -0.595222   -0.716493
H      1.471515   -1.021695   -1.434147
H     -1.172452    0.260981    0.799869
H      3.876977    2.213692    2.164193
H     -4.677076   -0.773389   -3.235127
