71

C      8.138816   -1.743691    1.526844
C     -3.525199   -1.766916   -2.072405
C     -5.569760   -2.282887   -0.862616
C     -1.306443   -1.399145    0.611670
C      6.962823   -2.233053    0.708921
C      6.841562   -1.396204   -0.545510
C      5.699480   -1.816862   -1.411477
C      4.367958   -1.724127   -0.742987
C      4.044510   -0.308205   -0.297501
C      2.683445   -0.259838    0.376984
C      2.333368    1.124666    0.844877
C      2.257543    2.140032   -0.259724
C      1.210573    1.888551   -1.284163
C     -0.880416    3.112278   -0.763879
C     -2.188552    3.177094   -0.342555
C     -0.818050    0.757076   -0.437472
C     -4.206125    2.335274    0.449743
C     -5.534925    2.721110    2.454898
C     -4.435673   -1.257438   -0.996322
C     -0.172865    1.901856   -0.818434
C     -2.802270    2.009163    0.031976
C     -4.491611    1.811475    1.836409
C     -2.139896    0.789303   -0.006428
C     -3.747729   -1.211975    0.335406
C     -4.617141   -0.716891    1.405801
N     -4.835613    0.435646    1.906163
N     -2.437673   -0.569579    0.297623
O     -5.038736    4.034122    2.300450
O     -5.386441   -1.693221    2.034442
H      9.055036   -2.360758    1.332427
H      7.892121   -1.793104    2.624544
H      8.298301   -0.680160    1.299188
H     -2.724465   -2.420342   -1.731522
H     -4.099263   -2.353903   -2.847741
H     -3.156748   -0.867528   -2.643728
H     -5.113867   -3.174457   -0.367137
H     -6.284186   -1.860159   -0.137136
H     -6.008248   -2.526430   -1.833039
H     -1.791240   -2.168176    1.315335
H     -0.947991   -2.078016   -0.155508
H     -0.582811   -0.988496    1.339716
H      7.081685   -3.281516    0.386554
H      6.061470   -2.139347    1.347549
H      6.758343   -0.344569   -0.244948
H      7.777629   -1.500678   -1.126426
H      5.835345   -2.858811   -1.755725
H      5.682776   -1.146719   -2.295093
H      3.593021   -2.002381   -1.497261
H      4.272743   -2.446995    0.081372
H      4.032050    0.359367   -1.167822
H      4.809664    0.044946    0.405650
H      2.690039   -0.904631    1.303976
H      1.891677   -0.635937   -0.273999
H      3.059157    1.458853    1.645905
H      1.336363    1.121110    1.348796
H      3.243681    2.147801   -0.802510
H      2.203623    3.180835    0.162144
H      1.406588    0.856063   -1.698797
H      1.329902    2.652090   -2.080455
H     -0.330027    3.994345   -1.075206
H     -2.752084    4.091188   -0.291858
H     -0.368624   -0.217838   -0.454473
H     -4.314911    3.430255    0.404733
H     -4.952866    1.911916   -0.241367
H     -6.494475    2.682348    1.926345
H     -5.593619    2.542800    3.536837
H     -4.841246   -0.270411   -1.223977
H     -3.559703    1.965875    2.433183
H     -3.517836   -2.288440    0.603598
H     -5.560007    4.540949    1.631536
H     -5.721951   -1.528551    2.974215
