33

C     -2.356181    1.359519    0.405717
C     -3.729498   -0.210528   -0.876918
C      2.097388    1.314719   -1.806531
C      3.943187    0.740195   -0.377496
C      0.747887    1.175099   -2.061152
C      4.402164    0.061000    0.735071
C      2.604226    0.652239   -0.701524
C     -0.097570    0.419130   -1.276830
C      3.551397   -0.691567    1.512798
C      0.445524   -0.222875   -0.188604
C     -0.378496   -1.057069    0.713192
C      1.796526   -0.119818    0.118139
C     -1.823558   -1.085636    0.345799
C     -2.302482    0.107437   -0.409775
O      3.999985   -1.307147    2.532059
O     -0.206287   -0.661075    2.043783
O     -2.638602   -1.349447    1.461134
O      2.286190   -0.749654    1.171289
O     -1.448691    0.279617   -1.532131
H     -1.777655    1.309217    1.347026
H     -1.891574    2.192085   -0.196481
H     -3.400770    1.687487    0.588059
H     -4.326793   -0.322377    0.050769
H     -3.670603   -1.228305   -1.337689
H     -4.098245    0.548774   -1.562508
H      2.750999    1.907005   -2.423955
H      4.610503    1.331702   -0.989238
H      0.334818    1.678174   -2.909716
H      5.440811    0.097566    1.031095
H      0.062638   -2.095855    0.657450
H     -1.973924   -1.978541   -0.329369
H     -0.263497   -1.457743    2.629046
H     -2.689819   -2.323328    1.637488
