37

C      5.087815    0.286987    0.737479
C      5.333121    0.689809    2.079323
C      3.822350    0.222281    0.259065
C      0.135591   -0.490637   -3.010929
C      0.012334    0.990165   -2.842220
C     -4.284485    1.089669    1.495259
C     -3.590022   -0.053750    1.864360
C      1.466903    0.287988    0.447692
C      0.272350    0.026552   -0.117800
C      4.197853    0.982514    2.781174
C     -2.875239    1.331158   -0.382730
C     -0.978845    0.115856   -2.194946
C     -3.939559    1.796605    0.366141
C      2.684239    0.534741    1.037327
C     -2.156098    0.180802   -0.030420
C     -2.535024   -0.525073    1.116082
C     -1.336030   -2.455542    0.438266
C     -0.940430   -0.244324   -0.707390
Cl    -4.848606    3.225014   -0.082621
N      2.948221    0.919914    2.317820
N     -2.063026   -1.852854    1.285842
N     -0.980323   -1.783530   -0.739177
O     -0.903727   -3.786573    0.690703
H      5.928424    0.033837    0.120685
H      6.311450    0.779668    2.499648
H      3.658306   -0.087744   -0.776268
H      0.915994   -1.041024   -2.469518
H     -0.126825   -0.899153   -3.999039
H      0.832153    1.510871   -2.362067
H     -0.387916    1.608477   -3.716035
H     -5.131969    1.451687    2.085596
H     -3.833599   -0.610361    2.751110
H      4.316475    1.286081    3.847992
H     -2.599527    1.876606   -1.302029
H     -1.987045   -0.081307   -2.625795
H     -0.732697   -2.250371   -1.607789
H     -1.692588   -4.461087    0.745208
