37

C     -4.630202    2.009027    0.237631
C     -5.460580    1.274192   -0.634125
C     -3.349140    1.571025    0.300515
C      0.718550   -1.627163   -2.558727
C      0.595800   -0.156534   -2.727923
C      3.233596    1.707859    2.528951
C      3.379052    0.349499    2.488400
C     -1.434394    0.094135   -0.332853
C     -0.299355   -0.254318   -0.281427
C     -4.911883    0.249716   -1.296336
C      1.696851    1.541814    0.690061
C      1.568364   -0.717738   -1.716763
C      2.409605    2.295045    1.650417
C     -2.771487    0.518354   -0.373024
C      1.866762    0.143232    0.676030
C      2.722455   -0.446497    1.598613
C      1.963564   -2.686468    1.062254
C      1.174977   -0.731043   -0.226130
Cl     2.187745    4.031454    1.767849
N     -3.675716   -0.182165   -1.245346
N      2.760477   -1.882392    1.771284
N      1.102234   -2.091030    0.169864
O      2.161122   -4.010107    1.379863
H     -5.039525    2.847231    0.732204
H     -6.481872    1.564153   -0.702870
H     -2.635821    2.141929    0.943231
H     -0.139269   -2.174235   -2.090051
H      1.181878   -2.212926   -3.407316
H     -0.292700    0.378303   -2.409298
H      1.034006    0.275062   -3.665516
H      3.803756    2.238979    3.326603
H      4.067438   -0.133329    3.199482
H     -5.634162   -0.257015   -2.003099
H      1.061503    2.058800    0.025595
H      2.623273   -0.672391   -1.946731
H      0.309225   -2.707449   -0.253557
H      3.133873   -4.347008    1.527412
