30

C     -4.125839   -0.307544   -0.858119
C     -1.514821   -0.991435    1.368118
C      0.740268    1.859444    1.320887
C     -1.249355    0.458794    1.049466
C     -3.211170    0.001544    0.305699
C      2.240569    0.783303    0.234098
C      3.373011    0.312223   -0.379557
C      1.050089    0.068547    0.146397
C      2.123616   -1.524523   -1.129701
N      4.594954    1.033043   -0.297291
N      2.086629   -2.631902   -1.789666
N      2.025070    1.887470    0.965321
N      3.287171   -0.844560   -1.055263
N      0.996594   -1.081127   -0.534379
N      0.137910    0.748693    0.822817
O     -4.444711    0.847119   -1.554790
O     -2.868350   -1.114549    1.025785
O     -2.032656    0.625709   -0.103264
H     -5.076082   -0.689242   -0.415634
H     -3.672759   -1.020332   -1.566971
H     -1.435998   -1.222871    2.447765
H     -0.964747   -1.692820    0.719498
H      0.266051    2.640524    1.931457
H     -1.692057    1.064809    1.839213
H     -3.750598    0.770536    0.932197
H      4.621462    2.032506   -0.070432
H      5.502496    0.547110   -0.469833
H      2.919669   -3.017702   -2.264877
H      4.171727   -1.189284   -1.520518
H     -4.098144    1.646517   -1.098423
