28

C      3.888382   -0.341188   -0.162684
C      1.322338   -1.320093    0.478686
C     -0.596735    1.871401    0.533565
C      1.092569    0.127152    0.451554
C      2.650318   -0.469168   -1.005491
C     -2.398254    0.782188   -0.025691
C     -3.662030    0.369647   -0.340931
C     -1.349294   -0.084130   -0.029086
C     -2.812436   -1.779793   -0.661154
Cl    -3.134411   -3.449425   -1.084551
N     -4.746297    1.292766   -0.331360
N     -1.903393    1.985459    0.326170
N     -3.864649   -0.938546   -0.663834
N     -1.555618   -1.354897   -0.344441
N     -0.250888    0.571310    0.310001
O      4.507614    0.865356   -0.523324
O      1.926727   -1.616893   -0.763554
O      1.799227    0.564171   -0.686342
H      3.663816   -0.247531    0.923516
H      4.587178   -1.162486   -0.378424
H      2.128133   -1.553296    1.236087
H      0.488123   -1.967622    0.709167
H      0.053939    2.692252    0.829279
H      1.543968    0.621006    1.349843
H      2.972214   -0.395662   -2.068311
H     -4.539041    2.315260   -0.494606
H     -5.712564    0.993692   -0.171809
H      3.901065    1.629069   -0.323358
