54

C      3.065119    0.041177    1.684630
C     -2.854545   -0.431949   -0.892378
C     -1.935561   -0.956444   -1.674362
C      1.093386   -0.667512    0.322956
C     -1.861344    0.747709    0.953669
C      2.245913    0.077394    0.444596
C     -2.410243   -0.591136    0.504683
C     -0.863408   -1.474797   -0.816830
C      2.614552    0.865645   -0.638122
C      0.700310    0.102964   -1.807937
N      1.816304    0.841842   -1.726001
N      0.325712   -0.665090   -0.774874
O     -2.955249    1.633316    0.968615
O      3.761552    1.622933   -0.549578
O      0.033222    0.164471   -2.883118
O     -1.455230   -1.570201    0.440061
C     -3.298776   -0.588756    0.592869
C     -2.042994   -1.006297    0.159929
C      3.424994    0.540887    0.497546
C      0.890580   -1.273340    0.277426
C     -3.662419    0.724490    0.394317
C      0.070891   -0.641838   -0.858797
C      2.689473   -0.214227   -0.563162
C     -1.558854    1.092186   -0.620808
N     -4.834189    1.150388    0.788431
N     -2.785383    1.537339   -0.208092
N     -1.184735   -0.177639   -0.438612
O      4.485438   -0.261441    0.916717
O     -0.698122    1.972062   -1.234329
O      2.174616   -1.407769   -0.180895
S      1.249322    0.735304   -1.194050
H      4.142739   -0.115613    1.460998
H      2.903319    0.938520    2.316478
H      2.738678   -0.843824    2.267486
H     -3.800610    0.049740   -1.183242
H     -1.994984   -0.984022   -2.775111
H      0.824600   -1.275891    1.181041
H     -1.424643    0.741746    1.946641
H     -1.146790    1.169952    0.227006
H     -3.235932   -0.913700    1.181773
H     -0.579352   -2.489883   -1.210182
H     -3.517022    1.356694    1.726935
H      3.769506    2.625957   -0.695833
H     -3.950080   -1.311711    1.072648
H     -1.787386   -2.061525    0.335401
H      2.782044    0.710081    1.384007
H      3.852193    1.470796    0.116516
H      0.502994   -2.263073    0.531908
H      0.834385   -0.552607    1.113007
H      0.077915   -1.333092   -1.722022
H      3.356826   -0.363813   -1.435597
H     -5.475374    0.477092    1.250315
H      5.351335    0.206754    0.905829
H     -0.464693    2.839750   -0.750775
