30

C     -5.651179    0.507508    0.166229
C      3.842702   -0.681185   -1.717502
C      2.428698    1.160190    0.689109
C     -2.302926   -2.022470   -0.400900
C     -0.246781    1.558743    1.272389
C      1.548073   -0.061123    0.864593
C      3.276073   -0.661645   -0.294313
C     -1.988700    0.455123    0.614761
C     -0.873862   -0.346690    0.441905
C     -3.246281    0.010785    0.278732
N     -1.075902   -1.577437   -0.068512
N     -3.378627   -1.216503   -0.221396
N     -1.584694    1.619408    1.124885
N      0.186181    0.356976    0.854725
O      5.239626   -0.531674   -1.558955
O     -4.326923    0.841811    0.467474
O      3.620341    0.546925    0.256702
O      1.912720   -0.799522   -0.269476
H     -5.653172   -0.451484   -0.391996
H     -6.274420    0.427858    1.084470
H     -6.130991    1.258267   -0.522599
H      3.661197   -1.661452   -2.210090
H      3.449161    0.172866   -2.293398
H      2.085907    1.771998   -0.175785
H      2.570404    1.735455    1.601924
H     -2.440700   -3.019143   -0.810929
H      0.329045    2.397784    1.676482
H      1.862940   -0.576557    1.795087
H      3.769969   -1.529476    0.225789
H      5.392120    0.314666   -1.030132
