28

C      3.850050   -0.717880   -0.568204
C      1.805537    1.455846    0.441133
C     -0.534001    1.275382   -1.295962
C      0.797903    0.325869    0.586985
C      2.855946   -0.504850    0.574138
C     -2.512030    0.467591   -0.897221
C     -3.837892    0.085614   -0.859712
C     -1.616036    0.030952    0.078307
C     -3.359262   -1.150686    1.106374
Cl    -4.983567    0.619652   -2.072105
N     -3.778083   -1.933102    2.071528
N     -1.808813    1.228369   -1.721240
N     -4.215229   -0.717787    0.151717
N     -2.072061   -0.763628    1.046598
N     -0.386819    0.539565   -0.179029
O      5.144244   -0.418216   -0.159401
O      2.945999    0.822819    0.935700
O      1.559253   -0.752092    0.165547
H      3.602793   -0.055323   -1.416544
H      3.830327   -1.800777   -0.847279
H      1.529472    2.348243    1.021873
H      2.013360    1.686756   -0.632355
H      0.293787    1.823017   -1.764758
H      0.616838    0.214892    1.674284
H      3.139379   -1.157229    1.422858
H     -4.785064   -2.204801    2.073496
H     -5.221511   -1.050886    0.242417
H      5.125481    0.302690    0.531287
