26

C      1.095237    0.316095    0.916459
C     -3.144156    0.785506   -0.915852
C     -1.142853   -1.303328    0.998209
C      2.299220    0.964825    1.058367
C     -0.304294   -1.265802   -0.251827
C     -1.800440    0.371412   -0.322975
C      3.352654    0.718980    0.196594
C      1.966725   -0.820881   -0.928026
I      2.517672    2.347182    2.616944
N      4.479165    1.310000    0.310028
N      3.139410   -0.180783   -0.779831
N      0.942925   -0.572101   -0.078548
O     -3.766481    1.733545   -0.115153
O      1.764372   -1.758326   -1.955950
O     -1.951556   -0.171338    0.928636
O     -1.158070   -0.553535   -1.125718
H      0.250679    0.491003    1.580441
H     -3.776485   -0.121218   -1.064850
H     -2.969201    1.247428   -1.907510
H     -0.548907   -1.355029    1.922093
H     -1.773982   -2.234774    0.937431
H     -0.146100   -2.252287   -0.697936
H     -1.167115    1.292695   -0.323911
H      4.661126    1.997731    1.046193
H     -4.732249    1.760646   -0.212608
H      1.912706   -2.747647   -1.738218
