28

C     -3.638277   -0.436202   -0.899307
C     -1.734037    0.127815    1.086986
C      0.879772   -1.536395    1.117873
C     -1.031725   -0.565186   -0.046389
C     -2.623335    0.675642   -0.807094
C      2.518883   -0.322521    0.391830
C      3.706079    0.293428    0.087768
C      1.372836    0.149990   -0.213725
C      2.560150    1.752224   -1.348739
F      2.681367    2.797004   -2.207066
N      4.906304   -0.162989    0.689568
N      2.210161   -1.351204    1.202655
N      3.705316    1.318835   -0.776307
N      1.360409    1.174287   -1.078978
N      0.377785   -0.615108    0.250787
O     -4.858175    0.081982   -0.464930
O     -2.565844    1.074000    0.527134
O     -1.335076    0.236283   -1.128110
H     -3.785965   -0.772056   -1.959890
H     -3.405537   -1.304323   -0.275156
H     -2.255548   -0.613542    1.710006
H     -0.987069    0.693158    1.712959
H      0.344938   -2.294935    1.660169
H     -1.381276   -1.579423   -0.241033
H     -2.959596    1.488388   -1.466091
H      4.885591   -0.847376    1.464306
H      5.843162    0.175148    0.371759
H     -4.791293    0.363076    0.481746
