26

C      1.211902    0.978481    0.722385
C     -3.219782    0.667396   -0.747364
C     -0.899262   -1.693672   -0.549775
C      2.506355    1.203113    1.155267
C     -0.463196   -0.266763   -0.485239
C     -2.527847   -0.332193    0.157165
C      3.495348    0.343457    0.786549
C      1.873969   -0.904167   -0.411009
Cl     2.923157    2.576230    2.176900
N      4.708268    0.520012    1.169144
N      3.144509   -0.707676   -0.002395
N      0.881986   -0.067393   -0.058462
O     -3.380056    1.838255    0.029757
O      1.637852   -2.013247   -1.214385
O     -2.297439   -1.536416   -0.456058
O     -1.306128    0.221020    0.514548
H      0.463977    1.691127    1.043644
H     -2.566457    0.970411   -1.590450
H     -4.168074    0.306148   -1.145636
H     -0.672624   -2.188917   -1.513778
H     -0.597722   -2.269221    0.333207
H     -0.682905    0.198721   -1.467679
H     -3.169283   -0.527730    1.046509
H      4.929835    1.336835    1.771149
H     -3.577423    1.571279    0.963415
H      1.751038   -1.915090   -2.227412
