26

C     -1.713877   -0.963623   -0.213750
C      3.601818    0.318205    0.609335
C      0.961408   -1.044587   -1.284283
C     -3.069177   -0.923192    0.043514
C      0.437127    0.184524   -0.559565
C      2.399205   -0.532464    0.239374
C     -3.693560    0.300640    0.224159
C     -1.605180    1.321736   -0.116419
Br    -4.118451   -2.514768    0.159054
N     -4.965520    0.359023    0.466670
N     -2.922227    1.393885    0.135281
N     -0.957272    0.144929   -0.299068
O      3.542719    0.523617    1.995017
O     -0.904241    2.531411   -0.186049
O      2.347176   -0.805565   -1.117680
O      1.245029    0.188062    0.557389
H     -1.238898   -1.910649   -0.352005
H      4.551231   -0.164018    0.371523
H      3.553568    1.310320    0.117572
H      0.667609   -1.094295   -2.327940
H      0.766507   -1.979504   -0.714434
H      0.748201    1.060659   -1.184271
H      2.435233   -1.504401    0.771460
H     -5.393047    1.301162    0.595730
H      3.837659   -0.313376    2.474228
H     -0.513043    2.812269   -1.092728
