26

C      1.387200    1.289147    0.161936
C     -3.704520    0.193236    0.337701
C     -0.844965   -1.563451   -0.568518
C      2.664508    1.580355    0.605454
C     -0.330042   -0.169681   -0.589012
C     -2.440872    0.003420   -0.457955
C      3.584630    0.566880    0.747457
C      1.911677   -0.933596    0.004197
Cl     3.184819    3.205233    1.004668
N      4.792241    0.797489    1.160286
N      3.160991   -0.682775    0.433056
N      0.988296    0.040427   -0.144558
O     -3.855127    1.539834    0.614291
O      1.584726   -2.242160   -0.288355
O     -2.216898   -1.329407   -0.776853
O     -1.309614    0.453388    0.222497
H      0.709324    2.134395    0.071617
H     -4.549066   -0.077689   -0.356684
H     -3.790757   -0.468486    1.195936
H     -0.470811   -2.195268   -1.396817
H     -0.779163   -2.056034    0.420670
H     -0.538244    0.240337   -1.619508
H     -2.490300    0.588418   -1.399648
H      5.431088   -0.023776    1.241818
H     -4.254312    1.990342   -0.164228
H      2.175188   -2.880577   -0.802780
