26

C      1.228886    0.900829    0.134764
C     -3.007679    0.915397   -0.482465
C     -1.106243   -1.288672   -0.595856
C      2.562347    1.233831   -0.107413
C     -0.397983   -0.806562    0.672780
C     -2.501900   -0.098031    0.552941
C      3.537035    0.282146   -0.061599
C      1.914860   -1.301651    0.452795
Br     2.984931    3.057857   -0.504618
N      4.772698    0.568418   -0.281883
N      3.197442   -0.983700    0.220292
N      0.936539   -0.377201    0.412546
O     -3.117818    2.154299    0.116449
O      1.628398   -2.624612    0.738161
O     -2.413835   -1.317726   -0.111286
O     -1.256103    0.232874    1.027870
H      0.466734    1.662652    0.095652
H     -2.310664    1.003236   -1.319856
H     -4.015014    0.580026   -0.809381
H     -0.951382   -0.515445   -1.349519
H     -0.747829   -2.289600   -0.896474
H     -0.464804   -1.565963    1.475809
H     -3.232225   -0.211942    1.367216
H      5.032519    1.545424   -0.499171
H     -4.002669    2.531090   -0.042530
H      1.263760   -3.286975    0.096159
