26

C      1.360661    0.888633    0.275275
C     -3.474100    0.730177    0.568057
C     -1.109791   -0.449559   -1.506661
C      2.699590    1.219237    0.256871
C     -0.422941   -0.716262   -0.171072
C     -2.511846   -0.362979    0.233995
C      3.605314    0.301035   -0.217293
C      1.869279   -1.179976   -0.618957
I      3.401024    3.071589    0.926212
N      4.853561    0.596538   -0.239603
N      3.174399   -0.900009   -0.653996
N      0.942308   -0.297576   -0.156859
O     -3.008432    1.908050   -0.023637
O      1.455795   -2.436671   -1.080145
O     -2.442479   -0.511191   -1.128206
O     -1.243457    0.003304    0.688687
H      0.631104    1.597385    0.644734
H     -4.494516    0.560263    0.231114
H     -3.504924    0.910904    1.662273
H     -0.858797    0.595853   -1.815208
H     -0.831211   -1.179942   -2.273817
H     -0.552467   -1.792973    0.096714
H     -2.821025   -1.315881    0.751000
H      5.594991   -0.032836   -0.578315
H     -3.261787    1.857279   -0.978093
H      0.949749   -3.064391   -0.481127
