26

C      1.555206    0.618415    0.778181
C     -3.517283   -0.135719    0.957245
C     -1.147648   -0.357060   -1.529974
C      2.897926    0.373530    1.048291
C     -0.395961    0.452820   -0.537043
C     -2.449308    0.485994    0.083631
C      3.658843   -0.354342    0.158908
C      1.740286   -0.550501   -1.193342
I      3.785862    1.112865    2.821795
N      4.902829   -0.567590    0.433285
N      3.054384   -0.803810   -0.953135
N      0.971387    0.152947   -0.351356
O     -3.394928    0.453490    2.230344
O      1.130050   -1.019592   -2.343148
O     -2.462486   -0.010270   -1.202095
O     -1.180216    0.247101    0.609446
H      1.020432    1.196127    1.520342
H     -3.339482   -1.218057    1.114772
H     -4.524458    0.077480    0.599400
H     -0.991018   -0.067604   -2.584285
H     -1.086905   -1.449246   -1.356650
H     -0.509076    1.520607   -0.797608
H     -2.569427    1.588237    0.053941
H      5.533006   -1.106103   -0.189497
H     -3.688287    1.402720    2.208248
H      1.006271   -2.042439   -2.388444
