29

C     -3.956105   -1.167837   -1.208125
C     -1.533206   -0.537823   -0.899145
C      4.178931   -0.233523    0.092170
C      1.266523    1.412166   -1.071621
C     -2.834419   -0.592683   -0.420139
C      0.797398    0.034222   -0.679380
C      2.853254    0.474022    0.046884
C     -3.072952   -0.087596    0.839468
C     -0.803468    0.466251    1.046189
N     -4.271314   -0.117309    1.328136
N     -2.063867    0.435362    1.560787
N     -0.527805   -0.014580   -0.175469
O      4.365707   -1.125563   -0.937760
O      0.251343    1.001081    1.773288
O      2.664645    1.208166   -1.101100
O      1.777401   -0.368832    0.206793
H     -3.694679   -1.247801   -2.288702
H     -4.287140   -2.147778   -0.841891
H     -4.839289   -0.465826   -1.185879
H     -1.384238   -0.946313   -1.897434
H      4.211064   -0.806829    1.046583
H      4.979935    0.526546    0.101629
H      0.889006    1.735602   -2.053800
H      1.038295    2.182874   -0.335351
H      0.899874   -0.605748   -1.588493
H      2.851483    1.200349    0.900934
H     -5.084561   -0.498430    0.838722
H      5.125477   -1.715792   -0.689756
H      0.202707    2.003625    1.959649
