26

C      3.025612   -1.123607    0.524871
C      1.649863   -0.965198    0.647737
C     -3.224678   -0.093264    0.727008
C     -1.134055    0.365783   -1.039804
C      3.745587   -0.169140   -0.162105
C     -0.404602    0.203734    0.271537
C     -2.215689   -1.081416    0.163152
C      1.716048    1.003729   -0.544593
N      5.041447   -0.273195   -0.304937
N      3.061645    0.867604   -0.676055
N      1.009696    0.087038    0.117552
O     -4.419456   -0.141895    0.012818
O      1.120138    2.132136   -1.127502
O     -1.991011   -0.726382   -1.165213
O     -0.980158   -0.953758    0.778211
H      3.554463   -1.967553    0.947673
H      1.139920   -1.756738    1.203628
H     -2.836557    0.944612    0.675338
H     -3.398654   -0.286979    1.819511
H     -0.448804    0.327351   -1.909585
H     -1.735794    1.296192   -1.005531
H     -0.663591    1.028595    0.973711
H     -2.620709   -2.084566    0.289480
H      5.523926    0.484356   -0.836082
H     -5.219094    0.010227    0.606908
H      0.704506    2.872332   -0.564767
