33

C      2.844816    1.671934   -0.294190
C      3.891316    1.224517    0.476960
C     -3.158524    2.464020    0.382815
C     -2.870802    1.394689    1.204632
C     -2.618884    2.438559   -0.878908
C      1.726274    0.911650   -0.512092
C      3.768500   -0.023561    1.022271
C     -2.079340    0.353220    0.777667
C     -1.834753    1.410490   -1.309686
C      1.586924   -0.343950    0.029451
C      2.625243   -0.808523    0.802518
C     -1.535635    0.335884   -0.504141
C     -0.743110   -0.830841   -0.954245
C     -1.604966   -2.083453   -0.840751
Cl    -1.753187   -0.968698    1.897460
Cl    -1.247602    1.486402   -2.978502
N     -2.855771   -2.049716   -0.668399
N      0.415160   -1.116701   -0.163725
N      2.617471   -2.078783    1.414900
O     -0.918821   -3.283635   -0.944198
O      3.235514   -2.219636    2.632557
O      2.125435   -3.071692    0.905237
H      2.907006    2.666103   -0.748114
H      4.776773    1.832034    0.647519
H     -3.762236    3.287995    0.668076
H     -3.281814    1.374329    2.219889
H     -2.834069    3.271606   -1.540337
H      0.952404    1.296912   -1.114189
H      4.567009   -0.424786    1.639816
H     -0.545711   -0.741361   -2.034383
H     -3.361038   -1.153827   -0.596614
H      0.367854   -2.036589    0.365107
H     -1.401438   -4.184591   -1.004400
