38

C      0.939055   -1.454097   -3.990598
C      1.612354   -0.528035   -3.194221
C      2.498887   -1.125611    3.356071
C      3.019092   -0.975094    2.116246
C     -2.630779   -1.357779   -0.888611
C     -0.299240   -1.892785   -3.571790
C     -2.081672   -1.847686   -2.029916
C      1.071568   -0.054741   -2.019670
C      1.261581   -0.622029    3.607071
C      2.291151   -0.312963    1.109792
C     -1.950916   -0.459311   -0.128670
C     -1.853745    2.307606    0.840830
C     -0.933199    3.433257    0.369064
C     -0.847639   -1.425580   -2.399493
C     -0.160944   -0.498275   -1.608737
C      0.557361    0.026915    2.614320
C     -0.665764    0.023191   -0.450621
C      1.055468    0.202066    1.312404
C     -0.690700    0.721050    2.715204
C     -0.006679    0.844189    0.550152
N     -0.983952    1.351888    1.476973
O     -1.439041    0.773423    3.757190
S      0.525139    2.476685   -0.101497
H      1.417191   -1.790462   -4.905634
H      2.592811   -0.148266   -3.478577
H      3.085395   -1.647806    4.124779
H      4.001316   -1.374523    1.922511
H     -3.620721   -1.709146   -0.613575
H     -0.812671   -2.612353   -4.200255
H     -2.630665   -2.564640   -2.628219
H      1.580354    0.666164   -1.448313
H      0.859730   -0.751829    4.607816
H      2.817398   -0.258676    0.192922
H     -2.449648   -0.143161    0.789229
H     -2.524178    2.772694    1.586007
H     -2.463491    1.940278    0.016028
H     -0.747883    4.174342    1.146047
H     -1.392324    3.841101   -0.552260
