28

C     -3.811812    0.859870    0.262670
C     -1.153271   -1.678519    0.026091
C      0.617032    1.374048    1.222838
C     -1.062417   -0.178480    0.349126
C     -2.977362    0.163479   -0.777761
C      2.497265    0.538058    0.482424
C      3.807180    0.243789    0.159006
C      1.442937   -0.248138    0.059705
C      2.982285   -1.626481   -1.009706
F      3.268921   -2.722620   -1.769308
N      4.881835    1.065188    0.603235
N      1.944561    1.536529    1.202641
N      4.004662   -0.857156   -0.595163
N      1.698485   -1.326741   -0.685172
N      0.284250    0.260805    0.511824
O     -5.150115    0.502889    0.135263
O     -1.652802    0.490954   -0.683653
S     -2.928414   -1.646722   -0.470501
H     -3.460242    0.705663    1.281319
H     -3.750949    1.944371    0.048860
H     -0.591279   -1.945412   -0.866077
H     -0.993869   -2.286046    0.908244
H     -0.074681    2.036250    1.732026
H     -1.575372   -0.068739    1.330693
H     -3.391879    0.324488   -1.769726
H      5.786557    0.694641    0.960944
H      4.753411    2.100075    0.567509
H     -5.394917   -0.256043    0.712607
