28

C     -3.846514    0.935497    0.670453
C     -1.601434   -2.047165   -0.406067
C      1.158646   -1.912637   -0.362896
C     -0.936288   -0.677239   -0.633634
C     -2.895095    0.347572   -0.336212
C      2.579691   -0.341004    0.195990
C      3.670365    0.423809    0.556152
C      1.331939    0.193920    0.003471
C      2.260354    2.285277    0.534294
F      2.151834    3.626723    0.719124
N      4.929167   -0.208427    0.736022
N      2.445276   -1.663026   -0.039604
N      3.476023    1.737568    0.717735
N      1.185925    1.522217    0.177999
N      0.445005   -0.771421   -0.342923
O     -3.427044    2.201713    1.086259
O     -1.600826    0.213376    0.207424
S     -3.341306   -1.434584   -0.470601
H     -4.839220    0.997424    0.179122
H     -3.910117    0.215201    1.514894
H     -1.374808   -2.445255    0.591527
H     -1.386025   -2.709451   -1.241405
H      0.822575   -2.919814   -0.594045
H     -1.161593   -0.399406   -1.675367
H     -2.899735    0.837869   -1.307521
H      5.711188   -0.105415    0.060631
H      5.080669   -0.799007    1.574455
H     -4.028650    2.895682    0.723157
