32

C      3.449778    0.513728    1.599339
C      3.289965    0.905580    0.290939
C      2.431372   -0.155126    2.219678
C     -3.297382    2.452642   -0.301970
C     -2.102322    2.944202   -0.766197
C      2.108850    0.622145   -0.382751
C      1.255565   -0.429570    1.527397
C     -3.380462    1.132100    0.020753
C     -1.007513    2.115528   -0.901645
C      0.055086   -2.620169   -0.366921
C      0.522166   -2.638120   -1.811635
C      1.071255   -0.055183    0.237300
C     -2.292152    0.290481   -0.110796
C     -1.090942    0.782831   -0.575038
C     -2.168168   -1.166777    0.131359
C     -0.147398   -0.305055   -0.561694
N     -0.841767   -1.523173   -0.214642
O     -3.113353   -1.876087    0.563548
S      0.430738   -0.840486   -2.220516
H      4.362608    0.739605    2.101002
H      4.106950    1.432063   -0.178199
H      2.546489   -0.468139    3.249590
H     -4.151306    3.138338   -0.204291
H     -2.058582    4.008535   -1.020316
H      2.036024    0.952383   -1.408214
H      0.478218   -0.953524    2.048544
H     -4.330545    0.744637    0.389069
H     -0.095756    2.575959   -1.275192
H      0.897921   -2.551347    0.330039
H     -0.443988   -3.588694   -0.184064
H      1.585962   -2.950378   -1.802259
H     -0.107311   -3.228929   -2.469745
