32

C      3.690172   -0.921403    0.268391
C      3.357772   -0.370621   -0.961395
C      2.761409   -1.001958    1.281091
C      2.058768    0.099487   -1.145885
C      1.480063   -0.521965    1.054559
C     -3.090028   -2.454823    0.445016
C     -2.881941   -1.341987    1.221855
C      0.021138    2.778559    0.218133
C     -0.328733    3.104221   -1.218285
C     -1.430390   -1.680410   -1.084745
C      1.111550    0.031954   -0.152905
C     -2.357082   -2.627754   -0.723795
C     -1.953928   -0.387941    0.861423
C     -1.219584   -0.547849   -0.287849
C     -1.595389    0.937003    1.413755
C     -0.236066    0.531970   -0.375169
Cl    -2.603551   -4.050019   -1.746423
N     -0.662807    1.544719    0.569766
O     -2.099438    1.369252    2.481048
S     -0.427376    1.431925   -1.934942
H      4.692373   -1.300549    0.460320
H      4.095102   -0.317883   -1.734276
H      3.027765   -1.433941    2.237576
H      1.768538    0.532599   -2.088449
H      0.793142   -0.612322    1.887166
H     -3.801049   -3.226023    0.682672
H     -3.447001   -1.197346    2.134288
H      1.100710    2.543614    0.244697
H     -0.178866    3.597870    0.905164
H      0.509472    3.681350   -1.650575
H     -1.293130    3.626820   -1.268021
H     -0.861616   -1.816547   -1.994203
