32

C     -3.737721   -0.662501   -0.111981
C     -2.858773   -0.862577    0.939104
C     -3.264101   -0.069873   -1.278410
C     -1.549953   -0.473128    0.803718
C     -1.946604    0.319706   -1.408534
C      3.090225   -2.596006    0.364542
C      2.801104   -1.548920    1.231996
C     -0.244623    2.518313    0.587330
C      0.436022    3.223257   -0.598822
C      1.543569   -1.633190   -1.167975
C     -1.078196    0.117182   -0.358070
C      2.441639   -2.627701   -0.858920
C      1.903115   -0.555012    0.919751
C      1.270983   -0.615831   -0.307605
C      1.475881    0.654606    1.634087
C      0.348365    0.494560   -0.388304
Cl     2.779439   -3.938483   -1.992273
N      0.567698    1.337328    0.805621
O      1.861862    1.005636    2.783113
S      0.708996    1.735607   -1.658023
H     -4.768227   -0.974318    0.007029
H     -3.197856   -1.317040    1.848916
H     -3.938087    0.085392   -2.088743
H     -0.892509   -0.648624    1.653785
H     -1.559750    0.788212   -2.322911
H      3.799482   -3.376873    0.616588
H      3.326836   -1.547398    2.191782
H     -1.221769    2.151344    0.191781
H     -0.320899    3.159026    1.458665
H     -0.215827    3.936729   -1.087996
H      1.408806    3.580329   -0.272259
H      1.030872   -1.659752   -2.136985
