26

C      3.995705   -0.126099    0.196643
C      0.581860   -1.771531   -0.584117
C     -3.873526   -0.552946    1.073388
C     -0.579820    1.395237   -1.199421
C      0.462049   -0.437114    0.170698
C      2.642756   -0.518569    0.695425
C     -2.651759    1.149994   -0.606023
C     -4.015682    1.214298   -0.407990
C     -1.897182    0.217420    0.049700
Cl    -4.995490    2.402970   -1.240465
N     -4.617180    0.355672    0.436080
N     -2.533499   -0.625361    0.886706
N     -1.814419    1.855002   -1.362761
N     -0.597656    0.373146   -0.324108
O      4.281289    1.223283    0.382068
O      1.653284    0.223301    0.009967
S      2.274443   -2.189733    0.012727
H      4.760421   -0.765282    0.674644
H      4.030746   -0.322706   -0.892794
H      0.620669   -1.631470   -1.661747
H     -0.154156   -2.476420   -0.211827
H     -4.332763   -1.263489    1.764742
H      0.333355    1.753679   -1.674532
H      0.361182   -0.714254    1.239897
H      2.514363   -0.488069    1.775173
H      3.551011    1.719041    0.797926
