31

C      5.524167    0.502966    0.257112
C     -4.802261    0.287743    0.115773
C     -1.664071   -1.411231   -1.072811
C      2.309333   -1.733025   -1.170670
C     -0.101144    1.221710    0.993703
C     -1.761520   -0.311207   -0.007701
C     -3.720964    0.308260   -0.924108
C      1.776279    0.377417    0.325691
C      3.104986    0.081554    0.063615
C      0.755177   -0.374157   -0.156686
N      4.166688    0.862067    0.564537
N      3.335082   -1.010563   -0.708821
N      1.021940   -1.448540   -0.918261
N      1.230022    1.383482    1.051185
N     -0.420001    0.150933    0.259090
O     -5.040015    1.512806    0.684795
O     -2.498163    0.709102   -0.497591
S     -3.430896   -1.378457   -1.594693
H      6.253808    1.169037    0.769594
H      5.745068    0.566158   -0.844909
H      5.776747   -0.541840    0.562333
H     -4.649165   -0.514743    0.865729
H     -5.750692   -0.005453   -0.424493
H     -1.388721   -2.359824   -0.632439
H     -1.093626   -1.089358   -1.947394
H      2.509893   -2.604651   -1.787853
H     -0.778658    1.911995    1.504102
H     -2.147876   -0.778760    0.917891
H     -4.027042    0.924321   -1.792740
H      3.970596    1.686932    1.148886
H     -4.204971    1.905324    1.043542
