31

C      5.073052    1.206227    0.644040
C     -3.989961    1.204383    0.110913
C     -1.890099   -1.705780   -1.555770
C      1.089952    1.975858   -0.265948
C      0.583248   -2.395441    0.496077
C     -1.689130   -1.518095   -0.109199
C     -3.524402   -0.194336   -0.133378
C      1.765083   -0.570848    0.362877
C      2.714186    0.418584    0.349361
C      0.449454   -0.283034    0.055697
N      4.082366    0.151157    0.662536
N      2.365216    1.675271    0.036048
N      0.157424    1.006161   -0.253151
N      1.809691   -1.875673    0.627650
N     -0.261343   -1.421158    0.143814
O     -3.164360    2.167821   -0.436524
O     -2.288433   -0.426193    0.389827
S     -3.226638   -0.503795   -1.902812
H      4.619676    2.201476    0.778105
H      5.853574    1.078771    1.423325
H      5.625147    1.197492   -0.340500
H     -5.033444    1.275824   -0.316743
H     -4.114080    1.340584    1.196456
H     -2.330533   -2.704774   -1.756511
H     -1.003166   -1.504700   -2.187181
H      0.797884    2.996466   -0.522052
H      0.336511   -3.440228    0.654276
H     -2.027359   -2.430027    0.457517
H     -4.308641   -0.890950    0.187947
H      4.411620   -0.807058    0.913464
H     -2.882495    2.776015    0.289837
