26

C      3.591007    1.001647    0.196449
C      1.167739   -1.336617   -0.677556
C     -3.764436    0.632271   -1.544893
C     -0.745596   -0.586158    1.497831
C      0.516890    0.005940   -0.576621
C      2.240985    0.576080    0.792171
C     -2.792304   -0.233614    0.873595
C     -4.152982   -0.069903    0.673242
C     -1.961435    0.053111   -0.178892
Cl    -5.209108   -0.434311    2.010832
N     -4.580525    0.351655   -0.514193
N     -2.437895    0.483340   -1.381997
N     -2.039455   -0.630253    1.914262
N     -0.700344   -0.170691    0.225740
O      4.595082    0.632137    1.062670
O      1.275007    0.937143   -0.051875
S      2.265594   -1.242016    0.771133
H      3.700240    0.398109   -0.737752
H      3.595178    2.077787   -0.058685
H      0.471646   -2.172844   -0.633205
H      1.838703   -1.366405   -1.568485
H     -4.200615    0.973192   -2.485424
H      0.115158   -0.849323    2.109421
H      0.202498    0.292737   -1.618374
H      2.150797    0.978704    1.818120
H      4.858169   -0.301718    0.867752
