31

C      5.495216    0.524975    0.082652
C     -4.274741    0.390406    0.714465
C     -2.211686   -1.509199   -1.340625
C      1.757688    0.178715    2.080785
C      0.208737   -0.033647   -2.029773
C     -1.828405   -0.217552   -0.602420
C     -3.313674   -0.730143    1.012314
C      1.795779    0.145186   -0.596587
C      2.991064    0.274204    0.075682
C      0.586177    0.033583    0.082466
N      4.238689    0.389787   -0.590106
N      2.925509    0.286341    1.416526
N      0.597688    0.053343    1.416597
N      1.539300    0.101349   -1.899362
N     -0.383644   -0.076132   -0.824543
O     -3.986497    1.540310    1.447411
O     -2.009353   -0.424558    0.729519
S     -3.622041   -2.018348   -0.268803
H      6.137416   -0.387262   -0.030541
H      6.090543    1.358818   -0.352839
H      5.306015    0.722863    1.177904
H     -5.283008    0.049583    1.034073
H     -4.305305    0.560630   -0.361585
H     -2.560876   -1.237830   -2.346403
H     -1.407225   -2.251295   -1.310910
H      1.728783    0.191177    3.181537
H     -0.343803   -0.102220   -2.980666
H     -2.327743    0.655845   -1.024384
H     -3.394036   -1.142829    2.013408
H      4.242928    0.375409   -1.649541
H     -4.389496    2.298492    0.953414
