25

C      1.915096   -0.803300   -0.571339
C     -3.346838    0.040481    1.070032
C     -0.742718   -1.503954   -1.250023
C      3.183205   -0.609357   -0.039287
C     -0.410462   -0.096262   -0.923675
C     -2.567010    0.119613   -0.224888
C      3.420548    0.526628    0.705513
C      1.181213    1.166166    0.342153
Cl     4.471885   -1.771391   -0.296015
N      2.414779    1.386132    0.878083
N      0.919949    0.072502   -0.385710
O     -3.391927    1.265722    1.720485
O      4.684823    0.749781    1.253427
O      0.321056    2.062385    0.584297
O     -1.300211    0.491156   -0.114662
S     -2.567300   -1.465630   -1.101284
H      1.757787   -1.698861   -1.148668
H     -4.386883   -0.305151    0.898619
H     -2.891865   -0.683327    1.781991
H     -0.527143   -1.719249   -2.315049
H     -0.302288   -2.252994   -0.567555
H     -0.402455    0.474187   -1.902154
H     -3.127599    0.854268   -0.870899
H     -3.375537    2.027154    1.081937
H      5.069896    1.673301    1.394673
