25

C      1.895763   -0.823384    0.722828
C     -3.596508    0.559089   -0.222709
C     -0.723271   -1.720080    0.798835
C      3.134607   -0.275570    0.988961
C     -0.305334   -0.703841   -0.276943
C     -2.462620   -0.293377   -0.721519
C      3.480302    0.980958    0.531148
C      1.336230    1.083987   -0.436197
F      4.080258   -0.934050    1.711222
N      2.537259    1.632142   -0.186415
N      0.970632   -0.136315   -0.004370
O     -3.501798    1.876582   -0.690219
O      4.724448    1.546306    0.791098
O      0.451948    1.708386   -1.115695
O     -1.272164    0.267265   -0.266334
S     -2.489507   -1.837162    0.282841
H      1.651758   -1.825851    1.101698
H     -4.565826    0.104400   -0.547813
H     -3.559597    0.531957    0.898461
H     -0.732748   -1.271484    1.789890
H     -0.208963   -2.667446    0.693582
H     -0.333048   -1.269350   -1.240130
H     -2.482663   -0.504438   -1.786634
H     -3.555977    2.531263    0.052934
H      5.526819    1.440013    0.212157
