25

C     -1.496523    0.556415    0.480752
C      3.210461    1.268239    0.295224
C      0.743701   -1.762687    0.795332
C     -2.847612    0.863395    0.536861
C      0.389360   -0.815405   -0.332494
C      2.457642    0.063312   -0.208399
C     -3.710143    0.082804   -0.188107
C     -1.900559   -1.199829   -0.942175
F     -3.266653    1.907040    1.293137
N     -3.215356   -0.929832   -0.909961
N     -1.014297   -0.464349   -0.249136
O      4.578343    1.088843    0.288093
O     -5.061976    0.398689   -0.125165
O     -1.532086   -2.170510   -1.648456
O      1.116456    0.340881   -0.161834
S      2.505744   -1.289442    1.040686
H     -0.768080    1.140935    1.034808
H      2.927276    2.114216   -0.383038
H      2.796652    1.514679    1.296014
H      0.754221   -2.821641    0.476811
H      0.160510   -1.604986    1.695932
H      0.658372   -1.240811   -1.317172
H      2.825538   -0.334066   -1.154856
H      4.984619    1.906246    0.662515
H     -5.295607    1.387866   -0.244495
