25

C     -1.555551    0.760616    0.554063
C      3.383954   -0.452952    1.533715
C      0.773413    0.899741   -1.150025
C     -2.897436    0.851140    0.830415
C      0.374800   -0.380699   -0.409701
C      2.450298   -0.558219    0.365022
C     -3.741681   -0.146486    0.413724
C     -1.878921   -1.237428   -0.510454
I     -3.698372    2.484162    1.879591
N     -3.208184   -1.175937   -0.252484
N     -1.017794   -0.280835   -0.119576
O      4.697993   -0.584333    1.088284
O     -5.090118   -0.068554    0.684126
O     -1.489258   -2.254501   -1.145546
O      1.112243   -0.435274    0.741796
S      2.547321    0.967907   -0.667667
H     -0.882804    1.535803    0.875068
H      3.192306   -1.238470    2.264006
H      3.270020    0.557749    1.982967
H      0.748833    0.671954   -2.212667
H      0.230234    1.771292   -0.818041
H      0.597827   -1.258359   -1.017755
H      2.646794   -1.390502   -0.309831
H      4.996159    0.188511    0.538877
H     -5.562075    0.773674    0.936684
