25

C      1.612191   -0.126672    0.891617
C     -3.690220    0.283212    0.735321
C     -0.554675   -2.017987    0.022127
C      2.911974    0.332905    0.940769
C     -0.398128   -0.539211   -0.374734
C     -2.576688   -0.209132   -0.128843
C      3.520052    0.836334   -0.187291
C      1.575892    0.423263   -1.355686
Br     3.906917    0.286779    2.566532
N      2.832210    0.873019   -1.330307
N      0.935772   -0.079994   -0.274735
O     -3.616882    1.670193    0.785901
O      4.842829    1.297472   -0.111033
O      0.957742    0.474008   -2.453807
O     -1.313283    0.167856    0.380057
S     -2.399316   -2.037294    0.007592
H      1.117528   -0.524693    1.763395
H     -3.645711   -0.185733    1.727879
H     -4.643150    0.035176    0.224466
H     -0.166595   -2.204664    1.022249
H     -0.148407   -2.653731   -0.769474
H     -0.746701   -0.485063   -1.435109
H     -2.628563    0.119491   -1.158879
H     -2.698849    1.969086    0.577556
H      5.014057    2.295378   -0.177909
