26

C      2.772861    1.450229   -0.599885
C      1.487541    1.307285   -0.090838
C     -3.148617   -0.927679   -1.100999
C     -1.248048    0.928209    0.344684
C      3.655566    0.398589   -0.490065
C     -0.209525    0.020702    1.019886
C     -2.665573   -0.826375    0.318066
C      1.969023   -0.830987    0.594225
N      4.874974    0.496824   -0.958093
N      3.224843   -0.724387    0.110071
N      1.086320    0.174538    0.502834
O     -4.369142   -0.237397   -1.154093
O      1.641067   -2.047446    1.195570
O     -2.467893    0.454137    0.748648
S     -0.994901   -1.564559    0.507594
H      3.116102    2.355995   -1.082484
H      0.814843    2.145854   -0.189370
H     -3.351222   -1.946423   -1.423971
H     -2.442233   -0.382352   -1.759344
H     -1.153951    1.965161    0.707971
H     -1.172434    0.847068   -0.748520
H     -0.321670    0.076565    2.104777
H     -3.323242   -1.386204    1.014026
H      5.498779   -0.331964   -0.846280
H     -4.303967    0.586432   -1.702745
H      1.030497   -2.001815    1.998903
