30

C      5.559279    0.851550    0.216883
C     -4.032088    1.177679    0.507203
C     -2.264534   -1.869630    0.247478
C      1.907397    1.823528   -1.437205
C      0.642043   -1.872944    0.723392
C     -1.365976   -0.918622   -0.470714
C     -3.260064    0.080329   -0.210617
C      2.130491   -0.407363    0.135673
C      0.930750   -0.075534   -0.416213
C      3.220524    0.400886   -0.115072
N      0.851883    1.035302   -1.190621
N      3.087649    1.481439   -0.883675
N      1.939188   -1.534302    0.847374
N      0.003950   -0.989868   -0.049065
O     -5.404928    0.848145    0.427760
O      4.435935    0.027594    0.469196
O     -3.460104   -1.155849    0.355022
O     -1.887769    0.329973   -0.059557
H      6.511566    0.294619    0.267755
H      5.428903    1.307803   -0.804257
H      5.517404    1.698943    0.927637
H     -3.689043    1.281039    1.540245
H     -3.912226    2.114407   -0.072098
H     -1.878560   -2.146970    1.260475
H     -2.431170   -2.756737   -0.390291
H      1.799917    2.698205   -2.059355
H      0.133557   -2.732904    1.167685
H     -1.504624   -0.986475   -1.554044
H     -3.500898    0.125477   -1.296564
H     -5.508452   -0.129720    0.225350
