30

C     -5.641261    0.795603    0.219476
C      4.769054    0.464649    0.692794
C      1.853593    0.799591   -1.209499
C     -2.252999   -2.458028   -1.291047
C     -0.373975    0.722187    1.170207
C      1.450549   -0.293251   -0.215410
C      3.572108   -0.043842   -0.051067
C     -2.064242   -0.435419    0.523245
C     -0.934016   -0.861452   -0.148632
C     -3.302370   -1.035925    0.277339
N     -1.079104   -1.860003   -1.031496
N     -3.330617   -2.028728   -0.629209
N     -1.692808    0.544779    1.333388
N      0.117858   -0.126973    0.266998
O      4.491349    1.739883    1.189036
O      3.228989    0.763121   -1.112195
O      2.427904   -0.098390    0.771004
S     -4.781506   -0.525951    1.112422
H     -6.523947    1.087195    0.818813
H     -6.015122    0.438917   -0.772105
H     -4.974080    1.672476    0.049935
H      5.064450   -0.250350    1.473708
H      5.592782    0.574531   -0.023294
H      1.454734    1.748905   -0.771934
H      1.450811    0.566871   -2.195829
H     -2.259305   -3.250433   -2.018595
H      0.188449    1.471993    1.721139
H      1.626133   -1.298145   -0.632511
H      3.749500   -1.097269   -0.382844
H      4.187088    2.273459    0.397312
