31

C     -5.742759   -0.453446    0.112744
C      4.682049   -0.569973   -1.203602
C      2.277963   -0.388549    1.111116
C     -2.443150    1.658720    1.538825
C     -0.108159   -1.094035   -1.053948
C      1.569498    0.419885    0.044255
C      3.679953    0.332859   -0.474389
C     -1.977870   -0.329903   -0.199079
C     -3.264021   -0.042414    0.187034
C     -0.886783    0.390176    0.290845
N     -4.392470   -0.754803   -0.292230
N     -3.466492    0.956592    1.056629
N     -1.181045    1.372497    1.156446
N     -1.452078   -1.238979   -1.028169
N      0.241504   -0.084672   -0.236674
O      5.928738   -0.466568   -0.593018
O      3.610897   -0.090451    0.827347
O      2.430172    0.248769   -1.033772
H     -6.055304   -1.116511    0.934659
H     -5.784223    0.625127    0.423624
H     -6.383646   -0.595009   -0.804908
H      4.808724   -0.227108   -2.263637
H      4.361962   -1.619798   -1.194677
H      1.977729   -0.118518    2.132024
H      2.162413   -1.491871    0.918035
H     -2.552399    2.475175    2.243292
H      0.615741   -1.674113   -1.625964
H      1.573537    1.465715    0.356654
H      4.085898    1.369135   -0.577978
H     -4.221429   -1.535149   -0.972896
H      5.905050    0.109538    0.221413
