26

C      3.418137   -0.139457   -1.024476
C      1.141976   -0.484292    1.290258
C     -2.752287   -1.065592   -1.717343
C     -1.307499    1.683595    1.527286
C      0.718503    0.728179    0.517072
C      1.992124   -0.578940   -0.776600
C     -2.862802    0.718305    0.339367
C     -4.024366    0.242451   -0.264556
C     -1.644140    0.268091   -0.124419
Cl    -5.551676    0.835856    0.350408
N     -3.943390   -0.630431   -1.269679
N     -1.615120   -0.617449   -1.146585
N     -2.638903    1.590223    1.357546
N     -0.718939    0.879772    0.625533
O      4.235484   -1.292171   -1.010746
O      1.950306   -1.199992    0.450873
O      1.116341    0.468071   -0.785259
H      3.794618    0.491905   -0.195686
H      3.561935    0.388003   -1.966574
H      1.639297   -0.145381    2.217503
H      0.259764   -1.127322    1.558435
H     -2.680060   -1.782433   -2.542542
H     -0.856904    2.322191    2.286309
H      1.226404    1.635101    0.895604
H      1.686522   -1.296764   -1.564837
H      3.854671   -1.891520   -1.700956
