26

C     -3.584012   -0.149247   -1.370896
C     -1.416501   -0.100005    1.442275
C      3.604152    1.868882   -0.538902
C      0.918413   -1.581875    0.288081
C     -0.528623    0.457118    0.343963
C     -2.402002   -0.322142   -0.457712
C      2.873889   -0.677068   -0.153348
C      4.193374   -0.366700   -0.421188
C      1.895318    0.294528   -0.074833
Cl     5.407295   -1.621645   -0.513627
N      4.538946    0.899349   -0.609761
N      2.316815    1.572865   -0.278263
N      2.220910   -1.847157    0.080821
N      0.696951   -0.260504    0.195737
O     -4.014678    1.148162   -1.468954
O     -2.687968    0.091221    0.849745
O     -1.315707    0.436143   -0.807150
H     -3.261194   -0.480205   -2.382190
H     -4.376703   -0.860130   -1.059596
H     -1.316630    0.437716    2.387663
H     -1.308431   -1.205320    1.533129
H      3.907180    2.900674   -0.696426
H      0.183220   -2.337351    0.495570
H     -0.297335    1.511965    0.653392
H     -2.098082   -1.377167   -0.390113
H     -4.148599    1.567891   -0.574890
