28

C      4.067478   -0.105952    0.677580
C      1.323052   -0.686822   -2.109899
C     -0.625233   -1.945842   -0.259909
C      0.828236    0.003969   -0.830178
C      2.960030    0.362880   -0.221777
C     -2.526290   -0.991822    0.179344
C     -3.817134   -0.646470    0.504056
C     -1.575852   -0.040306   -0.165234
C     -3.239199    1.585539    0.149871
Cl    -4.986578   -1.861595    0.931886
N     -3.600680    2.842832    0.139259
N     -1.896667   -2.174142    0.109659
N     -4.161039    0.644076    0.485705
N     -1.978348    1.242664   -0.166809
N     -0.405368   -0.641104   -0.434511
O      3.711573    0.269042    1.983888
O      1.756577   -0.228939    0.143015
S      3.127082   -0.370110   -1.903077
H      4.188400   -1.201464    0.652664
H      5.031156    0.380351    0.473557
H      1.102470   -1.752629   -2.101701
H      0.942924   -0.139801   -2.996547
H      0.111690   -2.747065   -0.392443
H      0.690577    1.073795   -0.990150
H      2.925526    1.440956   -0.357021
H     -2.900422    3.562814   -0.116273
H     -5.132350    0.971167    0.724152
H      4.078389    1.153975    2.211323
