31

C      1.442507    2.843838   -1.059675
C     -3.662128    0.670035    0.714908
C     -0.916500   -1.182925   -1.566734
C      4.264142    0.429258    0.631277
C      1.049526   -2.539910    0.935416
C     -0.672569   -1.093012   -0.076988
C     -2.702045   -0.403522    0.295265
C      1.752054   -0.596906    0.363423
C      1.999108    0.681000   -0.068575
C      2.799497   -1.329897    0.926633
N      1.023496    1.491908   -0.659180
N      3.284238    1.155358    0.088447
N      4.031194   -0.820939    1.055672
N      2.324079   -2.522190    1.265520
N      0.640938   -1.361001    0.368110
O     -4.946731    0.183502    0.473321
O     -1.366189   -0.054267    0.483104
S     -2.652090   -0.546124   -1.544431
H      2.487297    2.735131   -1.442156
H      1.496613    3.454487   -0.146659
H      0.753373    3.212509   -1.825489
H     -3.577878    0.932134    1.773130
H     -3.537268    1.550144    0.046777
H     -0.935865   -2.256405   -1.879405
H     -0.277175   -0.581780   -2.196726
H      5.270377    0.805769    0.752221
H      0.377024   -3.393915    1.088860
H     -1.315844   -1.989556    0.294342
H     -2.868538   -1.374577    0.768173
H      0.079186    1.260968   -0.845533
H     -5.643830    0.640883    0.986953
