34

C     -2.260359    1.679970   -0.439964
C     -1.060917    1.966397    0.052633
C     -3.352081   -0.406148   -1.248461
C     -1.467476   -1.549477    0.946605
C      2.508478   -2.009153   -1.029360
C      1.672175    1.880141    0.925876
C     -2.586114    0.285017   -0.156438
C     -1.202760   -0.356944    0.043003
C     -0.479061    0.741803    0.723394
C      3.041128    0.407284    0.022793
C      4.075723   -0.333743   -0.485200
C      1.740011   -0.097575   -0.012943
N      5.392404    0.184553   -0.445583
N      3.771720   -1.543009   -1.005936
N      1.477331   -1.299418   -0.536595
N      2.950935    1.632912    0.612044
N      0.928655    0.810250    0.538670
O     -4.544184    0.294444   -1.421962
O     -2.018099   -1.091800    2.150775
H     -2.911392    2.367196   -0.974320
H     -0.617097    2.951275   -0.043414
H     -2.802120   -0.469909   -2.184030
H     -3.653357   -1.412439   -0.840714
H     -0.571464   -2.171265    1.130190
H     -2.230733   -2.220376    0.500500
H      2.352711   -2.986702   -1.464229
H      1.331674    2.779034    1.400501
H     -3.106219    0.221025    0.797834
H     -0.748482   -0.623037   -0.909515
H     -0.785602    0.809860    1.797658
H      6.131543   -0.307530    0.136621
H      5.685113    1.024160   -0.954795
H     -4.845077    0.578152   -0.524082
H     -1.817005   -1.734950    2.898441
