26

C      1.901882    1.057466   -0.321755
C     -3.255348   -0.771401    0.535867
C     -0.663626    1.947897    0.000248
C      3.225767    0.729532   -0.512696
C     -0.411143    0.460275    0.257934
C     -2.500104    0.044432   -0.457914
C      3.594059   -0.585583   -0.308407
C      1.392480   -1.110211    0.234160
Cl     4.361299    1.958576   -0.994133
N      4.845346   -0.883885   -0.491356
N      2.679009   -1.491526    0.061778
N      0.968453    0.148164    0.052746
O     -4.588705   -0.300242    0.526345
O      0.507619   -2.116417    0.619503
O     -1.180909   -0.256564   -0.600807
S     -2.504061    1.828659   -0.014887
H      1.609730    2.076706   -0.478741
H     -3.303820   -1.806552    0.148772
H     -2.909737   -0.684020    1.562818
H     -0.304367    2.545471    0.825337
H     -0.353203    2.256118   -1.003312
H     -0.682617    0.290912    1.337568
H     -2.993912   -0.011642   -1.448640
H      5.183780   -1.862552   -0.351971
H     -5.230883   -0.993733    0.301651
H      0.613011   -2.469881    1.583089
