26

C      1.716014   -0.469266    1.046320
C     -3.059347    0.904990   -0.645912
C     -0.764075   -1.812980    0.437246
C      3.058371   -0.160638    0.999790
C     -0.442140   -0.388814   -0.041693
C     -2.491142    0.280247    0.594298
C      3.600124    0.499872   -0.099950
C      1.488970    0.538930   -1.084528
Br     4.166242   -0.656490    2.475203
N      4.856652    0.747912   -0.061087
N      2.798686    0.839072   -1.127941
N      0.947105   -0.103969   -0.020357
O     -4.431843    0.640878   -0.692116
O      0.648516    0.892372   -2.157988
O     -1.144546    0.465870    0.762273
S     -2.589300   -1.555639    0.506551
H      1.266986   -0.981919    1.887825
H     -2.543398    0.634476   -1.565680
H     -2.963698    2.003462   -0.523953
H     -0.451964   -1.991340    1.460147
H     -0.495211   -2.552537   -0.303800
H     -0.830886   -0.367441   -1.100443
H     -3.086706    0.572710    1.463163
H      5.259875    1.250676   -0.902110
H     -4.799192    0.598322    0.217427
H      0.285906    0.171244   -2.786431
