26

C      1.303201   -0.201191    0.952332
C     -3.331968   -0.059381    1.431220
C     -1.005107    0.571278   -1.622366
C      2.637206   -0.015678    1.249636
C     -0.508407   -0.519479   -0.661135
C     -2.566030   -0.639838    0.245115
C      3.537876    0.041550    0.209375
C      1.783423   -0.264899   -1.321315
I      3.362665    0.183908    3.211979
N      4.784483    0.214103    0.472072
N      3.097581   -0.083802   -1.058603
N      0.890672   -0.324167   -0.336599
O     -3.063652    1.304059    1.541483
O      1.346772   -0.392009   -2.629584
O     -1.225892   -0.425778    0.491605
S     -2.799941    0.453257   -1.218934
H      0.585525   -0.246912    1.779239
H     -2.959095   -0.551803    2.352190
H     -4.414262   -0.191210    1.268302
H     -0.888428    0.289015   -2.666759
H     -0.646102    1.561045   -1.346632
H     -0.599288   -1.485017   -1.187384
H     -2.848755   -1.666496    0.033947
H      5.162046    0.314438    1.428504
H     -3.179554    1.783375    0.686981
H      1.545030    0.351632   -3.304670
