25

C      1.765680    0.031220    0.887330
C     -3.227191   -0.743608    0.522565
C     -0.693597    1.604721   -0.058697
C      3.123856   -0.215171    0.715097
C     -0.519893    0.092417    0.128609
C     -2.579125   -0.233999   -0.727002
C      3.577040   -0.687287   -0.499080
C      1.350622   -0.639888   -1.274359
I      4.524602    0.108340    2.251066
N      2.667680   -0.886836   -1.465155
N      0.882203   -0.178729   -0.098957
O     -4.576236   -0.349775    0.476757
O      4.939128   -0.936108   -0.676924
O      0.489676   -0.826688   -2.182740
O     -1.239798   -0.540727   -0.834948
S     -2.463988    1.597671   -0.570213
H      1.450877    0.399857    1.851475
H     -2.795310   -0.230995    1.404334
H     -3.162749   -1.823476    0.669516
H     -0.051317    2.003833   -0.839523
H     -0.574051    2.056660    0.935549
H     -0.750871   -0.206352    1.168877
H     -3.095291   -0.522853   -1.639305
H     -4.631520    0.632413    0.643118
H      5.589573   -0.162138   -0.787390
