25

C      1.372810   -0.189743    0.867135
C     -3.240380    0.830660   -0.345835
C     -0.940954   -1.689962    1.162005
C      2.626567    0.370873    0.813421
C     -0.474817   -1.309540   -0.222646
C     -1.767642    0.534048   -0.101027
C      3.332999    0.399976   -0.358533
C      1.546267   -0.673361   -1.374377
Br     3.396688    1.122354    2.400991
N      2.774661   -0.133817   -1.465751
N      0.835769   -0.711707   -0.231840
O     -3.658357    1.948756    0.370622
O      4.591146    0.974915   -0.363276
O      1.070964   -1.162429   -2.454917
O     -1.443891   -0.571291   -0.837996
S     -1.668220   -0.065886    1.635365
H      0.871593   -0.180586    1.817317
H     -3.879233   -0.025362   -0.067219
H     -3.420039    1.026112   -1.428157
H     -1.755189   -2.430107    1.085455
H     -0.117382   -1.964203    1.806743
H     -0.389038   -2.269256   -0.788471
H     -1.165605    1.421611   -0.262204
H     -3.209699    2.774442    0.067285
H      4.710980    1.973504   -0.463231
