29

C      3.951602   -0.701520   -0.916491
C      1.524088   -0.683099   -0.291572
C     -4.081509    0.478158   -0.643993
C     -0.966241   -1.955144   -0.556263
C      2.753492   -0.052584   -0.305093
C     -0.852209   -0.713108    0.297414
C     -3.050564   -0.317031    0.062034
C      2.837299    1.197799    0.265720
C      0.579246    1.113988    0.799231
N      3.946390    1.856663    0.296187
N      1.755011    1.777608    0.815005
N      0.447440   -0.109331    0.253425
O     -4.014135    1.792042   -0.188446
O     -0.533422    1.745497    1.380709
O     -1.764738    0.214980   -0.201338
S     -2.806774   -1.966598   -0.719445
H      4.587295   -1.166386   -0.115483
H      3.607833   -1.479220   -1.655183
H      4.514022    0.044649   -1.514594
H      1.393278   -1.664659   -0.723139
H     -3.901375    0.433492   -1.722441
H     -5.086085    0.070255   -0.378091
H     -0.708901   -2.843964    0.021531
H     -0.495677   -1.865802   -1.535981
H     -1.161295   -0.973201    1.312284
H     -3.144385   -0.390560    1.142575
H      4.815895    1.484776   -0.100617
H     -3.122836    2.169657   -0.448175
H     -1.022747    2.502643    0.912337
