28

C     -3.901352    0.977159   -0.613213
C     -1.511531    0.213374   -0.519150
C      4.196997    0.539169    0.013347
C      1.217952   -1.961928   -0.747379
C     -2.737724    0.346357    0.101009
C      0.823260   -0.490996   -0.535106
C      2.953069    0.129526   -0.695434
C     -2.906192   -0.103639    1.395183
C     -0.635133   -0.777928    1.351544
N     -1.831566   -0.659409    1.985660
N     -0.442994   -0.348062    0.090751
O      4.004247    1.790863    0.565358
O     -4.134577    0.023263    2.032771
O      0.330973   -1.319044    1.989465
O      1.859312    0.078646    0.202073
S      2.996355   -1.660412   -1.136704
H     -4.802492    0.361444   -0.526508
H     -3.598166    1.122362   -1.679684
H     -4.005558    1.997764   -0.193216
H     -1.351147    0.556403   -1.530843
H      5.008364    0.625020   -0.734964
H      4.424041   -0.232826    0.780763
H      1.116516   -2.550568    0.163643
H      0.694492   -2.351036   -1.619702
H      0.858242   -0.027032   -1.539826
H      2.668421    0.744010   -1.545746
H      3.104910    2.152783    0.352815
H     -4.398719    0.824736    2.593093
