25

C      1.408833   -0.036416   -0.639965
C     -3.265964    1.136898   -0.502755
C     -0.769382   -1.880837   -0.504749
C      2.740124    0.331086   -0.734066
C     -0.535132   -0.859911    0.578345
C     -2.608490   -0.050020    0.212433
C      3.525046    0.236637    0.382904
C      1.650716   -0.564058    1.582922
I      3.580495    1.024565   -2.532443
N      2.969787   -0.208326    1.521334
N      0.860841   -0.480262    0.501298
O     -3.044471    2.250869    0.317790
O      4.871827    0.603451    0.306418
O      1.126175   -0.981505    2.647459
O     -1.280465    0.249580    0.336398
S     -2.507360   -1.474525   -0.948408
H      0.789037    0.040374   -1.530346
H     -2.703755    1.321409   -1.443276
H     -4.321689    0.958210   -0.703815
H     -0.774916   -2.881148   -0.054001
H     -0.106037   -1.786235   -1.358194
H     -0.782519   -1.261563    1.564892
H     -3.132821   -0.313163    1.127297
H     -2.763553    3.046971   -0.207810
H      5.073674    1.577918    0.080335
