53

C     -5.023695   -0.520043   -0.147490
C      5.098150   -0.629505    0.433016
C      4.834190    0.900788   -1.984232
C     -2.501708    3.125748    1.144580
C     -3.131998    2.494601   -1.163403
C     -3.670763   -1.156792   -0.093915
C     -3.018667   -1.035480    1.263421
C      0.321686    2.311586   -0.723370
C     -0.823920    2.937672   -0.635793
C     -1.543577   -2.992893    1.623838
C      4.127983   -1.078790   -0.638118
C      3.694635    0.055325   -1.528196
C     -1.675958   -1.656175    1.186025
C      0.394701    0.938545   -0.267186
C     -0.314612   -3.570343    1.502404
C     -0.600849   -0.994144    0.668808
C      1.723415   -1.024092    0.066787
C      2.991438   -1.785000   -0.002085
C      1.599840    0.271266   -0.353204
C     -0.746028    0.324912    0.248634
C      0.628127   -1.661004    0.578913
C     -2.053134    2.325789   -0.097252
O     -0.166432   -4.783117    1.891608
O      3.280412   -2.222349    1.307970
O      2.741135    0.895446   -0.873385
O      0.684445   -2.897010    0.999928
O     -1.934767    1.010103    0.327734
H     -5.830490   -1.275802   -0.170606
H     -5.135992    0.068342   -1.100810
H     -5.236145    0.118156    0.736442
H      4.984322    0.425850    0.702254
H      6.157407   -0.831434    0.113585
H      4.969746   -1.220778    1.382714
H      4.392079    1.832456   -2.443015
H      5.490033    1.255352   -1.175132
H      5.379103    0.400126   -2.809886
H     -3.597708    3.113632    1.217293
H     -2.115976    2.613218    2.069598
H     -2.050197    4.127821    1.135458
H     -3.074266    3.561046   -1.493886
H     -2.917256    1.866918   -2.026675
H     -4.140262    2.366248   -0.729066
H     -3.869594   -2.264208   -0.316223
H     -3.084089   -0.849986   -0.959234
H     -3.678915   -1.683915    1.952873
H     -3.081241   -0.008448    1.609333
H      1.224982    2.759288   -1.119203
H     -0.853680    3.969864   -0.985327
H     -2.427237   -3.450533    2.019330
H      4.680175   -1.802609   -1.299092
H      3.217741   -0.392190   -2.424503
H      2.747366   -2.734576   -0.562462
H      2.936044   -1.548882    1.940203
