53

C     -3.813737   -2.356122    0.942726
C      5.317615   -1.204007    1.101136
C      4.344050    0.956115   -0.730605
C     -2.799125    3.259285   -1.365907
C     -3.167613    2.711931    1.039056
C     -4.065836   -1.985897   -0.493033
C     -3.056379   -0.935690   -1.026996
C      0.171609    2.764410    0.510197
C     -0.984493    3.352280    0.313357
C     -1.559792   -2.850212   -1.119489
C      3.937872   -0.571469    1.179141
C      3.968267    0.849944    0.705732
C     -1.718325   -1.480290   -0.868802
C      0.346929    1.336602    0.275657
C     -0.324645   -3.390259   -0.885514
C     -0.633094   -0.737746   -0.406706
C      1.670268   -0.665229    0.244305
C      2.935961   -1.409802    0.459954
C      1.530684    0.684537    0.474527
C     -0.760579    0.638593   -0.169078
C      0.565496   -1.383082   -0.207269
C     -2.170243    2.609177   -0.147346
O     -0.147031   -4.615011   -1.097150
O      3.415254   -1.881042   -0.741390
O      2.648866    1.379578    0.922291
O      0.681104   -2.682701   -0.449882
O     -1.964705    1.250272   -0.384410
H     -3.783462   -1.429996    1.546244
H     -2.845712   -2.881858    1.097074
H     -4.648297   -2.953386    1.368260
H      5.606439   -1.461338    0.079339
H      6.068998   -0.500957    1.547937
H      5.301584   -2.115697    1.703144
H      5.213419    0.310714   -0.980301
H      4.719233    2.008056   -0.903793
H      3.504982    0.838295   -1.439148
H     -2.123819    3.974029   -1.867188
H     -3.175288    2.512587   -2.102300
H     -3.669797    3.848188   -1.012740
H     -3.019817    3.683712    1.558855
H     -4.158919    2.605056    0.619379
H     -2.950687    1.879848    1.743878
H     -4.100265   -2.884317   -1.090938
H     -5.102497   -1.542323   -0.578459
H     -3.334092   -0.070333   -0.379389
H     -3.339748   -0.751545   -2.088991
H      1.024184    3.365922    0.855536
H     -1.077202    4.401935    0.493215
H     -2.331646   -3.486464   -1.486709
H      3.649076   -0.546750    2.264681
H      4.647177    1.453128    1.343057
H      2.744721   -2.306044    1.102951
H      2.813060   -1.594624   -1.468096
