26

C     -1.857775   -0.751978    1.289441
C      3.397453    0.592130   -0.848081
C      0.592015   -1.491259   -0.960138
C     -3.132212   -0.264826    1.439652
C      0.352833   -0.733905    0.304958
C      2.431248   -0.428007   -0.262620
C     -3.477658    0.841978    0.662823
C     -1.337038    0.863344   -0.293678
F     -4.050860   -0.774151    2.269592
N     -4.669112    1.320993    0.783437
N     -2.575990    1.376936   -0.181204
N     -0.967644   -0.201648    0.437579
O      3.839759    1.375937    0.225681
O     -0.429193    1.457486   -1.190047
O      1.936625   -1.253733   -1.248654
O      1.343423    0.235856    0.298960
H     -1.580606   -1.620179    1.896106
H      4.254567    0.033232   -1.273681
H      2.881224    1.225293   -1.580150
H      0.419402   -2.579467   -0.764581
H     -0.030092   -1.190061   -1.802955
H      0.551154   -1.399040    1.165888
H      2.949148   -1.039630    0.498899
H     -4.921279    2.146944    0.201265
H      4.693896    1.022774    0.572736
H     -0.613289    1.234979   -2.177761
