51

C     -4.053855    2.959678    0.848202
C      5.564696    1.021262    0.175663
C      4.549300   -0.993583    1.699721
C     -3.046941   -2.892188    0.826478
C     -2.836333   -2.984510   -1.600686
C     -4.034495    2.198807   -0.455875
C     -2.981205    1.110198   -0.509208
C      0.299591   -2.790877   -0.104607
C     -0.903580   -3.296346   -0.195595
C     -1.407324    3.026137   -0.458118
C      4.320669    0.339801   -0.332538
C      4.124014   -1.046967    0.246866
C     -1.632995    1.669167   -0.423429
C      0.451587   -1.348984   -0.137620
C     -0.114304    3.494507   -0.365141
C     -0.534062    0.804797   -0.297033
C      1.838990    0.618036   -0.088896
C      3.162328    1.216283    0.001487
C      1.705178   -0.752000   -0.050803
C     -0.683565   -0.572787   -0.263147
C      0.715647    1.398935   -0.212592
C     -2.133070   -2.491401   -0.330872
O      0.061585    4.749680   -0.399632
O      3.323852    2.401960    0.340990
O      2.829119   -1.523944    0.073659
O      0.914868    2.700758   -0.245257
O     -1.927607   -1.121812   -0.355042
H     -3.141020    2.881266    1.440840
H     -4.940352    2.651264    1.465697
H     -4.240079    4.027653    0.621808
H      6.335449    0.313591    0.553345
H      6.045351    1.593872   -0.668273
H      5.296638    1.810720    0.914246
H      5.636371   -1.211512    1.788274
H      4.028353   -1.758619    2.307707
H      4.338576   -0.018956    2.136115
H     -3.166074   -3.984706    0.839432
H     -4.010584   -2.351923    0.708470
H     -2.517444   -2.605705    1.748167
H     -2.717317   -2.252949   -2.434605
H     -2.410752   -3.947255   -1.953993
H     -3.910980   -3.187698   -1.427853
H     -5.066324    1.752917   -0.576446
H     -3.954176    2.900500   -1.312869
H     -3.234923    0.476874    0.389219
H     -3.124729    0.579163   -1.463188
H      1.208507   -3.396636   -0.002408
H     -1.024610   -4.377864   -0.169306
H     -2.251498    3.687342   -0.579380
H      4.420265    0.250051   -1.441542
H      4.829263   -1.725996   -0.270432
