25

C     -2.035136   -0.533076    0.931691
C      3.420730    0.311758   -0.500381
C      0.790140    1.465421    0.707092
C     -3.280503   -0.761613    0.391128
C      0.275235    0.043721    0.822962
C      2.480102    0.034428    0.659566
C     -3.444769   -0.613285   -0.978165
C     -1.154615   -0.035695   -1.128310
Br    -4.781884   -1.272396    1.450462
N     -2.361972   -0.253422   -1.680268
N     -0.970321   -0.170160    0.175588
O      3.809618   -0.944374   -1.010802
O     -4.685575   -0.833855   -1.568597
O     -0.156292    0.303940   -1.832681
O      2.092845    1.266320    1.166703
O      1.344256   -0.638578    0.255733
H     -1.898923   -0.648417    2.011282
H      4.358832    0.783170   -0.144482
H      2.906837    0.926101   -1.240484
H      0.869917    1.784273   -0.343179
H      0.223968    2.169506    1.341107
H      0.245125   -0.206781    1.891847
H      2.983528   -0.607884    1.424062
H      4.455638   -1.311666   -0.356185
H     -5.486780   -0.257437   -1.413872
