25

C      1.958009   -0.727879    0.565387
C     -3.670425    0.168885   -0.691723
C     -0.802102   -1.631372    0.432086
C      3.269455   -0.446181    0.210977
C     -0.412210   -0.188641    0.638044
C     -2.482712   -0.232736    0.132000
C      3.562343    0.720442   -0.466026
C      1.254376    1.231212   -0.387518
Cl     4.587740   -1.539716    0.600449
N      2.527289    1.532920   -0.746838
N      0.937806    0.101518    0.273124
O     -3.913506    1.532453   -0.413820
O      4.867652    1.023337   -0.830977
O      0.318132    2.016797   -0.668971
O     -2.115812   -1.547215   -0.028424
O     -1.323205    0.451714   -0.233210
H      1.720885   -1.648431    1.100517
H     -3.523418    0.046397   -1.767028
H     -4.554762   -0.369358   -0.293979
H     -0.129166   -2.126795   -0.298931
H     -0.771542   -2.224923    1.369379
H     -0.667895    0.171996    1.652013
H     -2.670695   -0.032090    1.185715
H     -3.422033    2.083627   -1.070634
H      5.455795    1.634040   -0.261613
