25

C      1.507078   -0.558435   -0.877265
C     -2.662343    1.564041    0.405645
C     -1.234303   -0.900794   -0.801270
C      2.848470   -0.222752   -0.930350
C     -0.474118   -0.984182    0.478789
C     -2.401403    0.107658    0.807728
C      3.528036    0.012678    0.235684
C      1.605961   -0.404791    1.471033
I      3.809762   -0.081407   -2.779318
N      2.914866   -0.077560    1.413393
N      0.927484   -0.638925    0.323707
O     -3.954287    1.614040   -0.103691
O      4.888406    0.350557    0.135147
O      1.038589   -0.486688    2.589926
O     -2.539529   -0.643334   -0.346780
O     -1.119759   -0.038218    1.273749
H      0.951909   -0.748266   -1.784143
H     -1.895069    1.906456   -0.317429
H     -2.639337    2.224926    1.302962
H     -1.285591   -1.877602   -1.322530
H     -0.958799   -0.071760   -1.457384
H     -0.617039   -1.987724    0.921658
H     -3.130063   -0.173304    1.584814
H     -4.211834    0.759317   -0.550621
H      5.102912    1.356067    0.049535
