25

C     -2.102352    0.459246   -0.814276
C      3.450288   -0.835553   -0.146158
C      1.066981    1.498772    0.238360
C     -3.389458    0.249703   -0.408868
C      0.271782    0.473988   -0.541053
C      2.357068   -0.014584   -0.786162
C     -3.594640   -0.226794    0.872796
C     -1.262157   -0.233563    1.199716
Cl    -4.723770    0.580391   -1.493599
N     -2.526708   -0.458794    1.651190
N     -1.021357    0.222388   -0.020812
O      4.702477   -0.252738   -0.345468
O     -4.898358   -0.440972    1.288747
O     -0.310383   -0.468208    1.970033
O      2.358117    1.235849   -0.228162
O      1.134553   -0.618079   -0.477511
H     -1.936287    0.833394   -1.820009
H      3.442879   -1.852602   -0.590313
H      3.215162   -0.884527    0.944410
H      0.731973    2.523412   -0.002663
H      1.080545    1.296396    1.325651
H      0.245956    0.806542   -1.583844
H      2.503405    0.001100   -1.896144
H      4.705913    0.596101    0.172386
H     -5.501629    0.365739    1.491752
