26

C     -2.813973    1.116849    1.016690
C     -1.457377    0.837261    0.931561
C      3.546297    0.985139    0.192858
C      0.810775   -0.697452   -1.329983
C     -3.730881    0.292453    0.399470
C      0.380493   -0.585728    0.120910
C      2.459364   -0.054213    0.034040
C     -1.915312   -1.017596   -0.337608
N     -5.007723    0.537350    0.467419
N     -3.247636   -0.767470   -0.270292
N     -1.000114   -0.229770    0.255128
O      4.663477    0.514444   -0.503548
O     -1.490508   -2.145728   -1.057134
O      2.128694   -0.255165   -1.287377
O      1.249311    0.385472    0.594793
H     -3.166120    1.982045    1.566549
H     -0.715557    1.472179    1.409565
H      3.193184    1.960315   -0.199870
H      3.816921    1.086066    1.256760
H      0.179035   -0.045264   -1.989517
H      0.756938   -1.759373   -1.610604
H      0.646936   -1.536708    0.645705
H      2.726372   -0.981531    0.580408
H     -5.391949    1.349308    0.979433
H      5.250932   -0.038181    0.080216
H     -1.871581   -2.404702   -1.945575
