48

C     -4.233486    0.874206    0.901109
C     -5.023504   -1.546675    0.960669
C     -0.344032    0.898926    0.861033
C      5.165368    3.734851    0.767106
C     -3.360340   -0.782818   -0.649946
C     -2.523251    0.250487   -1.237064
C      0.357690   -3.103701   -1.238389
C      2.414950   -3.211054    0.052215
C      1.031902    1.274023   -1.079902
C     -0.612151   -1.017340   -1.981159
C     -4.162776   -0.500270    0.350623
C     -0.387057    1.037911   -0.654715
C      0.466991   -1.735154   -1.254281
C      1.344020   -3.813042   -0.578984
C      2.514964   -1.823252    0.029853
C      1.531495   -1.100709   -0.628309
C      2.974999    0.326166    0.186457
C      3.632632    2.071858    1.661042
Cl     1.198888   -5.569871   -0.561747
N      3.374365   -0.915237    0.511177
N      3.621050    1.520688    0.520036
N     -1.116381    0.007170   -1.197333
N      1.861277    0.199456   -0.501563
O      2.946235    1.460927    2.716223
O      4.324409    3.261862    1.829787
H     -4.497732    1.633624    0.134082
H     -3.296503    1.220172    1.380704
H     -4.998453    0.938276    1.730546
H     -5.421323   -1.221630    1.954930
H     -4.464107   -2.487381    1.144389
H     -5.927624   -1.761026    0.340962
H     -0.431268    1.875468    1.362155
H     -1.148701    0.200334    1.147909
H      0.608383    0.375535    1.172121
H      5.645688    4.675142    1.034272
H      4.504605    3.823360   -0.125334
H      5.920509    2.970279    0.508444
H     -3.330394   -1.792127   -1.029191
H     -2.712617    1.218770   -0.757164
H     -2.854910    0.378430   -2.308804
H     -0.476973   -3.555096   -1.732188
H      3.175031   -3.786948    0.561166
H      1.338871    2.267405   -0.740179
H      1.085859    1.260690   -2.187086
H     -0.244391   -0.718819   -3.000439
H     -1.403141   -1.770934   -2.171967
H     -0.923935    2.016861   -0.835734
H      2.854867    0.440206    2.632463
