48

C      4.287484   -2.258701    0.361496
C      3.232270   -4.438162   -0.427633
C     -0.157907   -1.911142   -0.247311
C     -4.420972    3.010209    2.367135
C      2.458135   -2.273492   -1.244739
C      2.504319   -0.812081   -1.286999
C      0.177494    2.697362   -2.468169
C     -2.201299    3.053820   -2.152454
C     -0.184129    0.091861    1.105962
C      1.485793    1.258404   -1.017392
C      3.285436   -2.948266   -0.477825
C      0.689269   -0.715478    0.194921
C      0.178762    1.876283   -1.379626
C     -1.028999    3.286688   -2.850714
C     -2.153395    2.220182   -1.062535
C     -0.986413    1.614344   -0.644920
C     -2.527603    0.950909    0.742604
C     -4.169029    0.562992    2.452795
Cl    -1.075553    4.338618   -4.239943
N     -3.086608    1.786988   -0.180926
N     -3.134193    0.285000    1.784807
N      1.276928   -0.143084   -0.912785
N     -1.204663    0.855053    0.431806
O     -4.522096   -0.351426    3.467325
O     -4.837937    1.703451    2.136124
H      3.777292   -1.553492    1.031213
H      4.806431   -2.982630    1.055637
H      5.042463   -1.709808   -0.240053
H      2.548335   -4.766145    0.391506
H      2.751080   -4.806735   -1.371017
H      4.210385   -4.923135   -0.331193
H      0.361850   -2.844506    0.054715
H     -0.375401   -1.884617   -1.340367
H     -1.135251   -1.932181    0.324702
H     -5.204683    3.705609    1.918774
H     -3.439088    3.306070    2.016816
H     -4.529714    3.244023    3.465973
H      1.745509   -2.844757   -1.854378
H      2.838774   -0.499003   -2.307676
H      3.361806   -0.476288   -0.629585
H      1.104797    2.863481   -2.996205
H     -3.114920    3.516739   -2.463944
H     -0.719501   -0.635809    1.772107
H      0.454544    0.695297    1.775432
H      1.913173    1.705025   -0.082920
H      2.216565    1.434472   -1.845662
H      1.476907   -1.149306    0.879354
H     -3.976447   -1.202641    3.624151
