41

C     -4.266207    1.138218   -1.478779
C     -3.974171    0.195256    0.881268
C      0.282537   -2.989042    0.778105
C     -2.385647   -0.291205   -0.882227
C     -1.597045   -1.115546    0.073711
C      1.300832    2.467582    0.997265
C      3.455437    2.704223    0.035958
C      1.586907   -1.637223   -0.852484
C     -0.105367    0.592100    0.907894
C     -3.495270    0.322627   -0.513470
C      0.743277   -1.612708    0.405654
C      1.201708    1.183373    0.511291
C      2.422321    3.240348    0.767300
C      3.403251    1.432878   -0.467641
C      2.256481    0.675790   -0.218995
C      3.681359   -0.535156   -1.422729
Cl     2.500668    4.876191    1.409584
N      4.247169    0.666400   -1.201313
N     -0.277551   -0.647828    0.250581
N      2.481046   -0.498161   -0.817778
O      4.240942   -1.606874   -2.143485
H     -4.552315    0.493434   -2.328267
H     -5.170363    1.591343   -1.000642
H     -3.668394    2.015818   -1.834080
H     -3.112833    0.513265    1.539568
H     -4.341771   -0.808034    1.135032
H     -4.766135    0.973507    1.071136
H      0.986512   -3.484385    1.507679
H      0.197953   -3.671827   -0.105205
H     -0.691618   -2.919037    1.311435
H     -1.989553   -0.227175   -1.902485
H     -2.130324   -1.192346    1.019299
H     -1.553084   -2.136123   -0.364729
H      0.487814    2.919723    1.585343
H      4.342262    3.308416   -0.148451
H      0.890177   -1.515506   -1.727904
H      2.121754   -2.597450   -0.976757
H     -0.923864    1.269661    0.628876
H     -0.077923    0.419357    2.000754
H      1.422018   -1.261663    1.237349
H      4.827009   -2.252220   -1.594456
