104

C      4.828766   -4.697761   -2.754422
C     -5.012744    3.020316    4.200644
C      3.711753    3.143493   -3.026304
C     -4.496943   -1.758756   -2.093393
C      7.300544    3.167794   -0.565436
C     -8.048089    0.411193   -0.560450
C     -0.091116   -5.509919   -2.626342
C     -0.707734    1.168782    6.323265
C      3.875254   -2.827149   -1.358092
C     -3.751429    1.941176    2.396589
C      2.408666   -4.450903   -2.254403
C     -2.786155    1.909222    4.604221
C      4.095151    0.963024   -1.830544
C     -4.738300   -0.849631    0.216682
C      1.965853   -0.338431    0.588809
C     -1.461210    0.195904    0.093364
C      6.309429   -0.446413    1.488920
C     -4.685095    2.871751   -1.754619
C      3.706014   -3.971112   -2.108523
C     -3.799291    2.263122    3.734401
C      4.565261    2.410620   -2.046734
C     -5.296375   -1.823525   -0.832031
C      6.797691    1.963180   -1.335588
C     -6.926959   -0.140953   -1.452111
C      2.814577   -2.150499   -0.754315
C     -2.644542    1.237487    1.914560
C      3.007557   -1.009270   -0.008495
C     -2.547426    0.889273    0.579485
C      0.697895   -0.846694    0.419594
C     -0.447293   -0.152931    0.989160
C      4.890652    0.480069   -0.675579
C     -4.701063    0.464563   -0.465344
C      6.862364    0.490732    0.635684
C     -5.743984    1.994383   -1.907468
C      5.055110   -0.927544    1.274571
C     -3.617733    2.502233   -0.923850
C      1.331139   -3.820824   -1.679807
C     -1.680062    1.206399    4.123902
C      6.150116    0.972263   -0.472481
C     -5.779207    0.777517   -1.271756
C      4.339123   -0.455917    0.176784
C     -3.635584    1.285536   -0.278051
C      1.552298   -2.677743   -0.937096
C     -1.630848    0.881117    2.774635
C      0.497986   -1.988968   -0.325136
C     -0.524879    0.179009    2.301262
N      5.949788    2.403468   -2.412287
N     -6.683171   -1.475899   -1.016692
O      8.143354    0.947142    0.900275
O     -6.785884    2.396312   -2.740779
O      4.490594   -1.875188    2.133673
O     -2.544698    3.347296   -0.745125
O     -0.746836   -2.565914   -0.538955
O      0.473330   -0.167653    3.188998
O      0.065786   -4.339011   -1.855929
O     -0.651718    0.834611    4.949578
H      4.542224   -5.093520   -3.743847
H      5.712945   -4.021367   -2.908290
H      5.205096   -5.511930   -2.085140
H     -5.936319    2.541377    3.784929
H     -5.017762    4.060978    3.834249
H     -5.127752    2.960111    5.302477
H      3.806207    4.242240   -2.793765
H      2.639987    2.901427   -2.883856
H      4.038916    3.038895   -4.074411
H     -3.564334   -1.139415   -1.972651
H     -5.133600   -1.344238   -2.922189
H     -4.174066   -2.765087   -2.434691
H      6.706785    3.388791    0.332029
H      7.305907    4.026234   -1.263845
H      8.373932    3.033438   -0.241779
H     -7.551091    0.765702    0.367232
H     -8.742899   -0.385764   -0.255994
H     -8.559885    1.215621   -1.106291
H      0.421654   -6.372419   -2.146510
H      0.306988   -5.405753   -3.649057
H     -1.176611   -5.793154   -2.704793
H      0.241810    0.813553    6.804859
H     -0.727549    2.269063    6.450055
H     -1.561987    0.658080    6.817238
H      4.868949   -2.416311   -1.216908
H     -4.518776    2.196986    1.682579
H      2.287392   -5.349137   -2.845558
H     -2.854762    2.178169    5.651368
H      4.330907    0.426930   -2.776808
H      3.017078    1.033476   -1.618474
H     -3.770102   -1.171175    0.604589
H     -5.538478   -0.777143    0.996723
H      2.145676    0.581838    1.174803
H     -1.392346   -0.065653   -0.970009
H      6.847938   -0.830079    2.352065
H     -4.640026    3.833429   -2.246868
H      4.493986    2.949658   -1.059209
H     -5.269528   -2.829159   -0.377512
H      7.735985    1.469647   -1.731783
H     -7.271687   -0.171046   -2.506378
H      6.203117    3.354049   -2.775613
H     -7.196048   -1.752473   -0.150202
H      8.650211    0.599784    1.694379
H     -6.787961    3.284480   -3.221450
H      5.013435   -2.201564    2.911199
H     -1.780962    3.076041   -0.147264
H     -1.622421   -2.269488   -0.198039
H      1.300144   -0.684497    2.956204
