104

C     -5.597468    2.921582    3.500984
C      5.659950    0.584882   -4.792621
C     -6.123255   -0.002500   -1.964149
C      2.856156   -4.124665    0.667209
C     -6.269325   -4.298411    0.220955
C      6.965972   -3.260820    1.946102
C     -2.513280    6.397167    1.609590
C      0.823327    1.629125   -6.205642
C     -3.888663    1.611628    2.270306
C      4.330005    0.745877   -2.709630
C     -3.739791    4.020687    2.293355
C      3.221714    1.073040   -4.775790
C     -4.164308   -0.789463   -0.621242
C      3.701780   -1.868384   -0.036006
C     -1.120215    0.285327    0.416143
C      1.952558    1.075593    0.040550
C     -3.410474   -2.744722    3.047536
C      6.384054    1.109196    1.172832
C     -4.365946    2.851519    2.658675
C      4.379846    0.806220   -4.081817
C     -5.677358   -0.740639   -0.719928
C      3.444286   -2.802185    1.133611
C     -5.506470   -3.045088   -0.098451
C      5.853445   -2.613960    1.233188
C     -2.752634    1.557719    1.496811
C      3.160677    0.942001   -1.986195
C     -2.280265    0.314981    1.155702
C      3.130974    0.876083   -0.618721
C     -0.471320    1.473021    0.043044
C      0.804748    1.338073   -0.665460
C     -3.874628   -1.446785    0.669451
C      4.615137   -0.763715    0.361552
C     -4.335916   -3.256343    2.142619
C      6.688031   -0.252051    1.471973
C     -2.744917   -1.579932    2.711147
C      5.262893    1.500377    0.509238
C     -2.604578    3.965942    1.517997
C      2.029720    1.277302   -4.117254
C     -4.574146   -2.607334    0.942860
C      5.788694   -1.172873    1.056437
C     -2.956487   -0.906665    1.525521
C      4.364612    0.542020    0.097663
C     -2.125433    2.744756    1.132528
C      2.017984    1.208775   -2.746633
C     -0.955747    2.687323    0.386748
C      0.835221    1.403865   -2.020964
N     -6.342767   -1.983042   -0.597316
N      4.606162   -2.983222    1.949311
O     -5.029470   -4.401116    2.408603
O      7.838392   -0.499284    2.139734
O     -1.807149   -1.044477    3.608392
O      4.999677    2.840829    0.234291
O     -0.303769    3.843828    0.006327
O     -0.317027    1.671597   -2.783823
O     -1.957445    5.166514    1.121541
O      0.837633    1.549532   -4.774889
H     -5.632857    2.001723    4.106968
H     -5.539471    3.781687    4.195651
H     -6.523859    2.979440    2.880634
H      5.695659    1.211942   -5.705713
H      5.792690   -0.479435   -5.093346
H      6.540932    0.896775   -4.158993
H     -5.987106    1.089210   -1.782552
H     -7.190389   -0.186754   -2.100988
H     -5.578567   -0.336517   -2.869244
H      2.969218   -4.833863    1.538649
H      1.785017   -4.035092    0.401730
H      3.495411   -4.497519   -0.144425
H     -6.938796   -4.233850    1.077279
H     -6.911962   -4.502422   -0.678769
H     -5.541981   -5.137101    0.257077
H      6.701150   -4.396076    1.913353
H      7.016191   -3.065779    3.044482
H      7.955562   -3.249402    1.438169
H     -3.521542    6.448936    1.145114
H     -1.939788    7.265049    1.291371
H     -2.544499    6.316368    2.692620
H     -0.215613    1.698445   -6.548735
H      1.397866    2.537410   -6.492117
H      1.266880    0.694147   -6.573478
H     -4.371901    0.687045    2.548898
H      5.247633    0.532528   -2.140411
H     -4.104885    4.992682    2.593780
H      3.242223    1.122218   -5.854791
H     -3.839053    0.283297   -0.622466
H     -3.700532   -1.322297   -1.479016
H      2.746458   -1.480180   -0.447811
H      4.192889   -2.445672   -0.838251
H     -0.686277   -0.644583    0.109484
H      1.924830    1.027365    1.129615
H     -3.215924   -3.239518    3.989000
H      7.101352    1.865662    1.503079
H     -5.999892   -0.077830    0.137160
H      2.639226   -2.366101    1.801627
H     -4.858553   -3.327912   -0.984966
H      5.758668   -3.141473    0.219238
H     -7.141848   -1.894871    0.065195
H      4.559888   -2.362235    2.778713
H     -4.932963   -4.949582    3.249966
H      8.257637   -1.280693    2.448980
H     -1.611442   -1.491597    4.489176
H      4.162041    3.112303   -0.260945
H      0.543385    3.782328   -0.536326
H     -1.206503    1.823090   -2.317659
