41

C     -5.836717   -0.730533    1.066085
C     -5.033427   -0.309517    0.027979
C      0.523180    0.778362   -0.615074
C     -3.061921   -0.171193   -1.862204
C     -5.510457   -0.431108    2.372016
C     -3.029730    0.875866   -0.742372
C     -0.837211    1.210700   -1.145188
C     -3.641488    0.669509    1.585191
N     -6.282066   -0.836882    3.350944
N     -4.396430    0.278721    2.626602
N     -3.939226    0.389556    0.303276
O     -2.489812    1.403771    1.854307
O      8.050380    0.287935    0.408053
O      5.908736   -1.497813    0.523916
O      7.311326   -1.137447   -1.648783
O      2.027628   -1.287510    1.866144
O      2.532135   -2.252155   -0.481562
O      3.633352    0.595106   -2.798489
O      4.452580   -1.495589   -1.516892
O      0.538067   -0.594639   -0.390590
O     -1.778525    0.881188   -0.204138
O      5.683695    0.777487   -0.960630
O      3.156253    0.295036   -0.055221
P      6.771593   -0.407520   -0.447380
P      2.086102   -0.978099    0.195328
P      4.223383   -0.015397   -1.328608
S     -1.351091    0.073311   -2.502519
H     -6.742648   -1.305913    0.884047
H     -5.297713   -0.548821   -0.986300
H      0.678819    1.265027    0.368591
H      1.343134    1.026073   -1.299382
H     -3.186787   -1.182276   -1.485037
H     -3.759260    0.138009   -2.650673
H     -3.410843    1.838493   -1.085653
H     -0.842056    2.243334   -1.486818
H     -6.064364   -0.629097    4.329808
H     -1.672098    0.976361    2.276547
H      7.655173    0.707052    1.218969
H      5.753623   -1.163226    1.422905
H      2.592052   -0.677606    2.370564
H      3.242659   -0.134693   -3.357762
