53

C      4.970796    0.221271    0.688942
C     -1.164148   -0.165205   -1.803724
C     -3.279013    0.784281    2.009455
C     -2.224937    2.285212   -1.118847
C     -0.959370   -1.095274    1.183688
C      1.400376   -0.503474   -1.745382
C     -0.801185    2.008202   -0.808901
C     -3.230284    1.633592   -0.257981
C      0.434043   -0.882612    1.791619
C      2.910635   -0.690341   -1.638205
C      2.566146    0.171384    1.365411
C      2.093700   -1.861962    0.335919
C      3.747812   -0.267330    0.576082
C     -1.347687    0.246613    0.671804
C      0.882337    0.188025   -0.471542
C     -3.598269   -0.752384    0.233849
C     -0.556841    0.502858   -0.587898
C     -2.801539    0.486557    0.567016
C      1.382547   -0.547661    0.687728
C      3.325595   -1.345182   -0.359795
O     -3.063508   -1.827393   -0.046627
O     -4.989199   -0.710908    0.235310
O      4.296282   -2.316922   -0.517298
H      5.784302   -0.152388    0.074881
H      5.216796    1.006575    1.389294
H     -1.048874   -1.246298   -1.823890
H     -2.259937    0.039166   -1.881871
H     -0.744827    0.348285   -2.718996
H     -4.280318    1.262276    1.905524
H     -2.553057    1.400695    2.542237
H     -3.425004   -0.155727    2.566361
H     -2.331275    3.412952   -1.109286
H     -2.380379    2.041952   -2.212918
H     -1.592119   -1.456806    2.001392
H     -0.786763   -1.842457    0.376812
H      1.277797    0.187280   -2.631216
H      0.970199   -1.486640   -1.898627
H     -0.156926    2.316733   -1.636908
H     -0.438267    2.572382    0.099711
H     -3.741165    2.447075    0.341942
H     -4.071186    1.282980   -0.930330
H      0.747274   -1.776274    2.344915
H      0.344752   -0.007298    2.465589
H      3.380775    0.282174   -1.818912
H      3.177596   -1.379412   -2.490688
H      2.644074   -0.119096    2.418119
H      2.413925    1.269262    1.302812
H      1.484147   -2.542387   -0.234485
H      2.431797   -2.301765    1.306443
H     -0.960600    1.022463    1.402965
H      1.433100    1.180819   -0.507526
H     -5.510937   -1.183748   -0.507734
H      4.980809   -1.984118   -1.126230
