28

C     -3.350074    1.721510    0.240052
C     -1.201745    0.417867    0.298902
C      3.801952    1.017158   -0.806681
C      1.612283   -2.003807    0.284418
C     -2.572010    0.460326    0.131988
C      0.891923   -0.693799    0.382369
C      2.809903    0.431239    0.148740
C     -3.249457   -0.709703   -0.145823
C     -1.191431   -1.841461   -0.070246
N     -2.535812   -1.836012   -0.239948
N     -0.497455   -0.724488    0.200964
O      3.345395    2.218725   -1.342619
O     -4.636620   -0.699986   -0.320255
O     -0.570732   -2.908525   -0.166438
O      1.574677    0.169622   -0.482732
S      3.317398   -1.308483    0.497288
H     -2.841388    2.495076    0.836782
H     -3.582771    2.049612   -0.794050
H     -4.321046    1.511962    0.737248
H     -0.684987    1.349360    0.517247
H      4.704268    1.291767   -0.189741
H      4.146034    0.330847   -1.576640
H      1.384180   -2.696205    1.086828
H      1.639905   -2.433791   -0.732213
H      1.124818   -0.292812    1.415540
H      2.681685    1.004275    1.065547
H      3.429285    2.974611   -0.691411
H     -5.228177   -1.294885    0.261176
