25

C     -2.703336    0.961829    0.654231
C     -1.392582    0.552949    0.694320
C      3.326906    1.061641    0.096488
C      0.861973   -1.585660   -1.289825
C     -3.556791    0.294983   -0.179410
C      0.385798   -0.896815   -0.025894
C      2.472221   -0.140523    0.367235
C     -1.839281   -1.113137   -0.881863
N     -3.129946   -0.720898   -0.930318
N     -0.993010   -0.482861   -0.082031
O      3.011017    2.113214    0.950098
O     -4.897994    0.655841   -0.270207
O     -1.537018   -2.081882   -1.629429
O      1.146169    0.229299    0.172129
S      2.668015   -1.284219   -1.063279
H     -3.062562    1.788624    1.261851
H     -0.704561    1.081428    1.358434
H      3.105980    1.404459   -0.938117
H      4.397692    0.794308    0.129497
H      0.682768   -2.677740   -1.252981
H      0.502312   -1.100098   -2.209739
H      0.486066   -1.645044    0.794153
H      2.666915   -0.642340    1.312153
H      3.338508    1.833783    1.859311
H     -5.235258    1.598860   -0.199994
