52

C     -7.058628    2.184464    0.565708
C      5.097271    1.631171   -1.917192
C     -4.531559   -1.680869   -2.482715
C      3.939497   -2.280832    0.927556
C     -2.850227    1.738804    0.777186
C      5.321244   -2.199626    0.978287
C     -4.222791    1.908264    0.729546
C     -0.802284    0.557734    0.029348
C     -3.005564   -0.050361   -0.824170
C      3.864646   -0.408879   -0.484049
C      1.703965   -1.408024    0.112841
C     -0.753006   -0.042377    2.470388
C     -2.265813    0.770511    0.006586
C      3.168188   -1.400926    0.205075
C     -0.380767   -0.439799    1.070900
C      5.979021   -1.208978    0.287466
C     -4.969559    1.081048   -0.107810
C      5.238627   -0.308559   -0.448651
C     -4.375665    0.101505   -0.886997
C      1.407517   -0.797756    2.529566
C      1.129665   -0.453235    1.136489
O      7.361494   -1.079661    0.302119
O      2.531558   -1.088315    3.048886
O      1.576709    0.857619    0.895643
O     -6.332563    1.220511   -0.180537
O      5.879580    0.719886   -1.169566
O     -5.176378   -0.692338   -1.702693
O      0.228489   -0.762020    3.240515
H     -7.127770    1.875380    1.629426
H     -6.529568    3.175351    0.546741
H     -8.059244    2.350446    0.164276
H      4.559436    1.036349   -2.696690
H      5.804244    2.345380   -2.395877
H      4.376088    2.175600   -1.271264
H     -3.861636   -2.331708   -1.874173
H     -3.991613   -1.246458   -3.357008
H     -5.302145   -2.374710   -2.905050
H      3.407523   -3.073646    1.463891
H     -2.222823    2.355190    1.411039
H      5.883723   -2.915166    1.561158
H     -4.715189    2.665315    1.326960
H     -0.228579    1.487952    0.204737
H     -0.468506    0.166470   -0.952283
H     -2.543650   -0.815947   -1.433433
H      3.318929    0.316655   -1.073074
H      1.345384   -1.076609   -0.872654
H      1.280002   -2.410145    0.347155
H     -0.581010    1.049779    2.573640
H     -1.761878   -0.320107    2.773223
H     -0.691552   -1.475132    0.820604
H      7.867675   -0.378041   -0.183915
H      2.539494    0.948840    1.135671
