35

C      4.295236    0.625979    1.160588
C      1.316999   -2.461677   -0.553713
C      3.289249    0.960614    0.388466
C     -2.552826    2.970334   -0.921882
C     -1.224043    2.594940   -0.863656
C     -3.536320    2.072531   -0.579949
C      2.523097   -0.086300   -0.319354
C     -0.694685   -1.682062    0.508397
C      0.578534    1.134921   -0.471953
C      0.442974   -1.260638   -0.434894
C     -0.865705    1.315991   -0.461884
C     -3.209372    0.813876   -0.183496
C     -1.859946    0.430034   -0.123740
C     -3.081595   -1.271288    0.494310
N     -3.914656   -0.252742    0.201416
N      1.096594   -0.079610    0.055041
N     -1.829683   -0.834791    0.289046
O     -3.482973   -2.532613    0.928101
H      4.893983    1.350152    1.706030
H      4.569919   -0.431401    1.281490
H      0.692158   -3.372757   -0.770885
H      1.825268   -2.722791    0.417670
H      2.095408   -2.429178   -1.321410
H      3.029605    1.989843    0.274898
H     -2.828069    3.963739   -1.234988
H     -0.420789    3.280867   -1.130231
H     -4.582179    2.344367   -0.618171
H      2.641873    0.124913   -1.414493
H      2.926108   -1.093132   -0.062296
H     -0.920684   -2.763039    0.419338
H     -0.286260   -1.543528    1.527608
H      0.995834    1.959644    0.179522
H      0.933012    1.267541   -1.523158
H      0.019700   -1.070584   -1.454358
H     -2.875767   -3.312151    0.738906
