55

C      7.044579    1.592963   -0.143334
C      6.908500    0.211093   -0.086967
C      5.954685    2.425532   -0.137406
C     -5.466940   -1.934333   -0.566622
C      5.659389   -0.355181   -0.023392
C      4.703399    1.849878   -0.073486
C     -4.380742   -2.747633   -0.356833
C     -5.329646   -0.559200   -0.526683
C      2.474778    0.429592    1.245948
C      2.522236    0.240879   -1.251864
C     -4.548926    3.704856   -0.334248
C      1.090560   -0.206409    1.370190
C      1.045034    0.362056   -0.953885
C     -4.995630    2.246384   -0.437916
C     -1.990607   -3.099838    0.108410
C     -1.670535   -0.126193    0.209140
C      4.561164    0.472152   -0.017164
C      3.213111   -0.120949    0.047235
C     -3.126830   -2.174479   -0.101074
C     -2.985657   -0.809227   -0.060459
C     -0.607659   -1.131673   -0.079601
C     -0.849463   -2.350446    0.741746
C     -4.100791    0.014929   -0.276058
F     -4.024783    4.006715    0.888685
N      0.728008   -0.634320    0.048989
O      0.251637   -3.216462    0.739019
O     -3.908363    1.387065   -0.225762
H      8.027392    2.023967   -0.193575
H      7.767960   -0.417529   -0.092642
H      6.058150    3.518622   -0.182080
H     -6.447760   -2.328636   -0.765425
H      5.529164   -1.436321    0.021563
H      3.828944    2.510158   -0.068177
H     -4.489174   -3.822560   -0.387715
H     -6.177367    0.090194   -0.690604
H      2.328576    1.521302    1.106922
H      3.109005    0.200511    2.138192
H      2.936632    1.147132   -1.716727
H      2.633104   -0.633057   -1.934797
H     -5.430084    4.318755   -0.605329
H     -3.776916    3.901548   -1.114734
H      0.417278    0.554498    1.802605
H      1.205449   -1.028681    2.090654
H      0.423704    0.170818   -1.833549
H      0.874209    1.402933   -0.585162
H     -5.760646    2.019121    0.311424
H     -5.447045    2.129902   -1.444637
H     -1.635427   -3.419919   -0.911410
H     -2.284715   -4.000327    0.687590
H     -1.639261    0.288645    1.229973
H     -1.600531    0.712306   -0.514115
H      3.285028   -1.227443    0.151986
H     -0.724433   -1.432077   -1.156070
H     -1.186348   -2.110328    1.785501
H      0.004603   -4.131285    1.007276
