41

C     -1.115498   -2.636770   -1.988379
C      2.564233    1.011524   -1.852569
C      3.761097    0.951691   -1.194799
C      1.385416    0.569771   -1.303366
C     -2.892437   -1.124001    0.861827
C      4.765009    0.206304    1.018845
C     -2.659004   -1.810683   -0.460140
C      4.173617   -0.356649    2.109890
C     -3.233168    1.238917    0.725796
C     -0.567685    1.835878    0.522610
C     -0.302658   -1.766957    0.021363
C      3.782354    0.414631    0.098597
C     -2.267324    0.237550    0.732346
C      1.391594    0.042213   -0.039535
C     -0.935874    0.507057    0.632636
C      0.186088   -0.450542    0.625279
C     -2.852072    2.541606    0.616697
C     -1.514744    2.837523    0.515082
C      2.599174   -0.027881    0.647463
Cl    -3.989760    3.875579    0.598449
N     -1.319862   -1.603704   -0.964957
O     -1.065951    4.165593    0.400338
O      2.899171   -0.481645    1.860731
H     -1.884994   -2.573139   -2.772858
H     -0.086362   -2.667531   -2.349735
H     -1.296637   -3.617345   -1.457820
H      2.568608    1.436904   -2.866577
H      4.702165    1.283846   -1.583301
H      0.469449    0.647324   -1.881371
H     -2.360591   -1.725009    1.640456
H     -3.972584   -1.044024    1.039428
H      5.801879    0.446726    0.889823
H     -2.906084   -2.874514   -0.341662
H     -3.358557   -1.366740   -1.196100
H      4.606589   -0.673532    3.053090
H     -4.279931    0.981084    0.806799
H      0.506013    2.060224    0.442938
H     -0.556730   -2.516435    0.796632
H      0.609182   -2.187631   -0.495013
H      0.398017   -0.690487    1.697550
H     -1.751148    4.903274    0.393518
