43

C      4.703016    2.225942    0.101656
C      3.917765    1.170643   -0.690213
C     -1.751478   -3.246882    1.189580
C     -0.401809   -3.382967    1.032550
C     -2.421072   -2.058460    0.893398
C     -2.149224    2.365739   -1.021238
C     -3.469380    2.590972   -0.759448
C      1.826045   -2.457260    0.392307
C      2.706410    0.804423    0.114469
C      2.320702   -1.482653   -0.610888
C     -0.164628    0.932675   -1.077970
C      0.379022   -2.337729    0.569427
C     -1.569224    1.162014   -0.669069
C     -1.653802   -1.017600    0.431344
C      0.501422    0.048363   -0.091421
C     -4.231831    1.624958   -0.144357
C     -0.277352   -1.142561    0.271611
C     -2.338410    0.192156   -0.046647
C     -3.668882    0.391275    0.227707
N      1.857953   -0.168990   -0.481810
O     -5.547416    1.891218    0.096125
O     -4.469498   -0.540338    0.840640
H      4.004598    3.084687    0.295233
H      5.011226    1.759387    1.057595
H      5.596265    2.570514   -0.469291
H      4.561136    0.264446   -0.760122
H      3.638814    1.586853   -1.664793
H     -2.310725   -4.115585    1.566248
H      0.125658   -4.314182    1.261207
H     -3.471939   -2.087427    1.052053
H     -1.507862    3.115911   -1.512355
H     -3.890590    3.543714   -1.050329
H      2.016270   -3.483018   -0.046817
H      2.406216   -2.350064    1.330432
H      2.991353    0.561963    1.174139
H      2.093760    1.748674    0.215215
H      2.058997   -1.874635   -1.631189
H      3.452323   -1.438402   -0.642248
H      0.404170    1.893593   -1.136268
H     -0.126024    0.434646   -2.078004
H      0.522655    0.664721    0.881781
H     -6.231990    1.318009    0.524013
H     -5.442641   -0.448742    1.065747
