25

C     -3.252548   -1.033310    0.937006
C      2.677232    0.389977   -1.507206
C      1.683578   -0.431840   -0.980332
C      2.800202    1.701640   -1.110944
C      0.924550    1.379181    0.352256
C     -1.341765   -0.886665   -0.507190
C      0.813403    0.066799   -0.054384
C      1.918830    2.188351   -0.179946
C     -0.261501   -0.797268    0.521597
N     -2.494217   -1.654548   -0.096228
O      2.006504    3.494895    0.243837
O      0.221646   -2.039237    0.862780
H     -3.816345   -1.816019    1.517510
H     -2.623660   -0.473011    1.621857
H     -4.006027   -0.328437    0.520931
H      3.364282   -0.001018   -2.237981
H      1.643893   -1.446527   -1.332069
H      3.558049    2.358457   -1.501531
H      0.216607    1.753283    1.092692
H     -0.960873   -1.279999   -1.469947
H     -1.724603    0.155047   -0.714559
H     -0.618129   -0.322032    1.454313
H     -3.086341   -1.928586   -0.902132
H      2.577873    3.749011    1.041646
H     -0.220641   -2.798145    0.416959
