55

C      7.333418   -0.378201    0.007045
C      6.807942   -1.245028    0.940738
C      6.490247    0.416666   -0.741428
C     -5.650535    1.085832   -0.891407
C      5.421393   -1.315150    1.125350
C      5.124868    0.324757   -0.535926
C     -4.740563    2.064326   -0.554475
C     -5.228265   -0.250918   -0.802549
C      2.629213    0.653037    1.316742
C      2.336669   -0.678782   -0.696543
C     -4.996485   -3.759739    0.370885
C      1.102732    0.471737    1.375888
C      1.422752    0.484353   -0.968139
C     -3.924633   -3.159722   -0.472196
C     -2.558699    2.854690    0.194446
C     -1.716139    0.062550    0.360944
C      4.568720   -0.530046    0.387573
C      3.121783   -0.592975    0.562330
C     -3.450828    1.741581   -0.141389
C     -3.091557    0.440686   -0.071417
C     -0.737528    1.159664   -0.087046
C     -1.156002    2.478753    0.507761
C     -3.967494   -0.617562   -0.399870
F     -6.198569   -3.152437    0.266024
N      0.558089    0.753198    0.129386
O     -0.328934    3.467599   -0.048694
O     -3.556795   -1.888731   -0.314913
H      8.424396   -0.329748   -0.131053
H      7.490791   -1.856277    1.512591
H      6.945463    1.080643   -1.461674
H     -6.652551    1.337248   -1.213678
H      5.045680   -1.993469    1.855360
H      4.485178    0.945092   -1.121475
H     -5.040499    3.102919   -0.614556
H     -5.942085   -1.003234   -1.085002
H      2.912144    1.529352    0.715481
H      3.056664    0.688164    2.328751
H      2.953463   -0.852500   -1.606892
H      1.675986   -1.588795   -0.619917
H     -4.668886   -3.784774    1.434808
H     -5.127110   -4.826162    0.004508
H      0.726802    1.020248    2.249771
H      0.929854   -0.620324    1.614173
H      0.787414    0.201419   -1.835088
H      2.055492    1.348167   -1.263755
H     -3.007624   -3.827309   -0.468111
H     -4.292325   -3.289721   -1.555187
H     -3.024366    3.391577    1.074009
H     -2.639609    3.608003   -0.636469
H     -1.660683   -0.025558    1.453860
H     -1.442963   -0.871759   -0.175528
H      2.890740   -1.427328    1.292006
H     -0.918240    1.247559   -1.197129
H     -1.052747    2.441002    1.623643
H     -0.525176    3.465425   -1.008376
