93

C     -5.248823   -3.767365   -1.019441
C     -5.911439    4.501788   -0.679444
C     -7.859781   -1.058116   -0.807474
C     -1.483369    1.725414    2.827593
C     11.252378   -1.205967    1.112217
C     -6.547479   -3.059883   -1.268199
C     -3.556005    0.576420    3.291206
C      4.162662   -0.835456   -0.301847
C     -4.533328    1.288842    2.765189
C      7.404622    0.026710    2.098967
C     -0.410208   -0.899142    0.675413
C      5.441618   -1.263455   -0.658704
C     -1.289179    0.223163    0.271159
C      8.672000   -0.393219    1.750725
C     -5.101434    2.989363    1.103080
C     -4.665935    2.466169   -1.255563
C      5.019452    0.166364    1.647692
C      0.552845   -1.058004   -1.619151
C      0.879815    1.410075   -2.054470
C      2.584856    0.322356    1.194567
C      7.978370   -2.155674   -1.442240
C     -4.794115    3.545736   -0.238077
C     -6.543802   -1.743530   -0.538188
C     -2.281372    0.470572    2.552415
C      3.941350   -0.121292    0.846923
C      6.310165   -0.255081    1.305364
C     -4.371727    1.958146    1.488108
C      0.845888   -0.895163   -0.182896
C      1.126232   -0.017424   -2.535311
C     -2.577410    0.289787    1.096497
C      6.518785   -0.967596    0.155358
C      7.804198   -1.395843   -0.201998
C      8.892286   -1.110786    0.595259
C     -4.067243    1.175267   -0.743424
C      1.545169    1.468675   -0.703115
C     -3.345162    1.474341    0.540517
C     -5.385712   -0.905232   -0.941787
N      1.645273    0.282654    0.088655
O      9.314520   -2.476232   -1.603068
O      0.402218   -0.105543   -3.751237
O      1.987128    2.556722   -0.322055
O     -4.581288   -1.328678   -1.810761
O     10.182467   -1.534010    0.247647
O     -5.171296    0.325289   -0.387434
H     -4.675907   -3.772805   -1.974568
H     -5.421587   -4.822221   -0.660402
H     -4.665986   -3.247150   -0.233774
H     -6.893040    4.181869   -0.332186
H     -5.824200    4.651961   -1.768189
H     -5.727647    5.513941   -0.218067
H     -7.978313   -0.766781   -1.860079
H     -8.658059   -1.800483   -0.589618
H     -8.033261   -0.204772   -0.117223
H     -1.603551    2.063737    3.884934
H     -1.873840    2.541171    2.202988
H     -0.396244    1.558563    2.687944
H     12.204308   -1.590388    0.704353
H     11.114967   -1.585565    2.134395
H     11.309757   -0.078039    1.106342
H     -7.396815   -3.666382   -0.927504
H     -6.710482   -2.881297   -2.363959
H     -3.699792    0.084278    4.247346
H      3.384717   -1.108573   -0.985516
H     -5.504489    1.396658    3.290138
H      7.223293    0.588667    3.001089
H     -0.873447   -1.887733    0.706936
H     -0.047464   -0.682065    1.716677
H      5.604613   -1.818492   -1.553499
H     -0.751359    1.179749    0.518344
H     -1.623249    0.207694   -0.781407
H      9.507359   -0.155003    2.395150
H     -5.876620    3.381776    1.758445
H     -5.701926    2.261059   -1.655876
H     -4.076040    2.769672   -2.143664
H      4.877627    0.732388    2.568508
H     -0.544895   -1.093959   -1.853126
H      1.025381   -2.034540   -1.970941
H     -0.177594    1.659458   -2.022585
H      1.412137    2.066305   -2.773266
H      2.642471    1.383209    1.566061
H      2.200169   -0.250558    2.071724
H      7.377210   -3.102472   -1.440405
H      7.581568   -1.569692   -2.303108
H     -3.879042    4.207747   -0.196513
H     -6.502442   -1.963519    0.543823
H     -1.693921   -0.410147    2.884510
H      1.414261   -1.809717    0.177596
H      2.186389   -0.170245   -2.805807
H     -3.202925   -0.603074    0.967002
H     -3.444350    0.687359   -1.509000
H     -2.666247    2.350262    0.335600
H      9.448760   -3.461984   -1.538500
H      0.871561    0.378970   -4.474488
