28

C     -3.039128    2.212121    0.421448
C     -3.950967    1.280052   -0.002574
C     -1.710997    1.850833    0.482022
C     -3.548498    0.009858   -0.360365
C      1.262996    0.517112    0.447565
C      0.911915   -2.214277   -0.484468
C     -1.289806    0.567378    0.122439
C     -0.056273   -0.047140    0.088277
C     -2.208442   -0.356320   -0.299779
C      2.364351   -0.497717    0.413275
C     -0.250081   -1.317405   -0.349296
C      3.607768    0.197642    0.015171
N      2.163629   -1.611078   -0.407100
N     -1.547487   -1.498718   -0.581585
O      4.311067   -0.221456   -0.927877
O      3.995851    1.325179    0.695466
H     -3.328324    3.212512    0.706948
H     -4.993464    1.548995   -0.054873
H     -0.963770    2.571073    0.815389
H     -4.259319   -0.729143   -0.694944
H      1.177077    0.940457    1.471012
H      1.443664    1.383505   -0.229153
H      0.823029   -3.053648    0.264981
H      0.800610   -2.727277   -1.483327
H      2.540829   -0.854916    1.470869
H      2.920878   -1.940475   -0.993114
H     -2.003882   -2.372567   -0.925829
H      4.826775    1.825423    0.379421
