27

C     -2.961653    1.000807   -0.314861
C     -2.780770   -1.000032    1.053887
C      3.301537    0.563562   -0.347048
C     -0.026836   -0.843786   -0.581263
C      1.336698   -1.112099    0.018526
C     -0.078840    0.452955    1.523237
C     -2.156381    0.128405    0.271557
C     -0.712631    0.282563    0.145333
C      1.309973    1.025334    1.270877
C      2.057580    0.147385    0.398061
O      2.327982    0.276357    1.855658
H     -4.047886    0.899246   -0.229723
H     -2.523802    1.809747   -0.875585
H     -2.274660   -1.105826    2.039061
H     -3.830718   -0.773456    1.258524
H     -2.746299   -1.932585    0.452519
H      4.200910    0.144731    0.188047
H      3.313282    0.210520   -1.388794
H      3.403032    1.666420   -0.249789
H     -0.610185   -1.782169   -0.567433
H      0.113483   -0.575046   -1.651819
H      1.967455   -1.707156   -0.675740
H      1.211110   -1.764890    0.930985
H     -0.036653   -0.531518    2.032844
H     -0.671740    1.205219    2.080515
H     -0.482140    1.213717   -0.405458
H      1.398156    2.101592    1.150239
