13

C     -1.459320   -0.226017    0.216421
C     -0.111067   -0.432348   -0.433561
C      0.510657    0.891268   -0.255554
N      0.628176   -1.513514    0.134423
N     -0.422570    1.748666   -0.074994
O      1.863189    1.251702   -0.264874
O     -1.667042    1.158963   -0.106990
H     -1.396877   -0.287388    1.322502
H     -2.244025   -0.860776   -0.191493
H     -0.266649   -0.595107   -1.516915
H      1.490433   -1.657360   -0.399346
H      0.835877   -1.376257    1.126692
H      2.239217    1.898169    0.443688
