33

C     -4.798941   -0.977233   -0.622467
C      5.417926    0.193677    0.969563
C     -0.870839   -0.089774    0.074066
C     -1.067904    1.523835   -1.650283
C      0.515994   -0.010672   -0.052547
C      0.304120    1.576939   -1.748745
C      4.384923    0.860976    0.316273
C      4.634572   -1.867181    0.045814
C     -3.833892   -0.081025    0.153884
C      5.528757   -1.174431    0.823429
C     -1.685491    0.674826   -0.721277
C      1.136734    0.815292   -0.957303
C      3.613946   -1.172514   -0.593998
C      3.471207    0.190207   -0.471880
C     -4.706991    0.777101    1.035258
Cl     6.846138   -2.005520    1.660209
Cl     2.481191   -2.029552   -1.593547
O     -4.689514    2.021162    0.979470
O     -5.550868    0.152633    1.931102
O     -3.052730    0.675472   -0.680787
O      2.488510    0.892780   -1.082762
H     -5.015697   -1.904655   -0.043532
H     -4.317463   -1.207880   -1.590824
H     -5.750803   -0.449175   -0.763655
H      6.141999    0.703305    1.590484
H     -1.319636   -0.754163    0.800023
H     -1.723665    2.123393   -2.273284
H      1.067729   -0.642354    0.616569
H      0.774722    2.236528   -2.470204
H      4.333182    1.925458    0.455501
H      4.721592   -2.939507   -0.068617
H     -3.254057   -0.727674    0.829705
H     -6.224753    0.689726    2.457867
