36

C     -1.085091    2.273946   -2.254719
C     -3.197090   -1.918371    0.291870
C     -1.261054    2.073142   -0.796654
C      2.304048   -0.689108   -0.709096
C      3.552798   -0.763050   -0.076476
C     -1.814948   -0.322183    1.520531
C      0.265224    0.912427    2.040460
C     -0.790466   -1.413596   -0.391476
C     -1.915197   -1.167633    0.522866
C     -1.059563    0.942936    1.326454
C     -0.827337    1.044215   -0.139819
C      1.215991   -0.153656   -0.063565
C      1.340307    0.315861    1.212372
C      3.634673   -0.277487    1.211517
C     -0.098880   -0.079131   -0.735932
N      0.026441    0.050343   -2.171815
N      2.564768    0.233170    1.806733
O      4.886320   -0.359530    1.825132
H     -1.540947    3.253720   -2.583329
H     -0.021951    2.378055   -2.568913
H     -1.651214    1.522916   -2.866657
H     -3.012197   -2.909488   -0.160807
H     -3.730945   -2.092332    1.249694
H     -3.797403   -1.345277   -0.442464
H     -1.812657    2.893944   -0.271743
H      2.287858   -1.084546   -1.713248
H      4.405768   -1.185628   -0.590099
H     -2.281228   -0.549621    2.465146
H      0.136499    0.382291    3.007381
H      0.573853    1.949982    2.284878
H     -1.122571   -1.904919   -1.343711
H     -0.105543   -2.122720    0.102623
H     -1.639036    1.823122    1.669245
H     -0.427696   -0.756489   -2.604857
H      0.980185    0.228150   -2.479095
H      5.018281   -1.183454    2.427570
