45

C      0.674228   -3.119254   -0.913140
C     -4.489186    0.109151    2.419305
C     -3.384646   -0.693203    2.235468
C     -3.711912    2.036297   -1.905491
C     -4.792835    0.973095    1.391115
C     -4.458088    1.977218   -0.764940
C     -2.610957    1.222991   -2.065040
C     -2.635269   -0.619390    1.074670
C     -1.010519   -0.523451   -1.303980
C      0.165770    0.005619   -0.559023
C      3.625805    0.436716   -0.103808
C      2.147715    0.380742    1.465172
C      1.526917   -2.120800   -0.230339
C     -4.072769    1.076601    0.221159
C     -2.217148    0.325745   -1.096180
C     -2.955210    0.249235    0.061792
C      4.151652    1.071985    1.003040
C      1.447857   -0.709942   -0.668271
C      5.479775    1.670374    1.074307
N      6.251542    1.624187    0.050712
N      3.211068    1.027059    1.976339
N      2.390777    0.017932    0.200192
O      1.331644   -2.274039    1.149494
O      5.952689    2.296761    2.218514
H     -0.175952   -3.513853   -0.286243
H      0.374041   -2.878438   -1.951061
H      1.300403   -4.063364   -1.052696
H     -5.082720    0.055120    3.330877
H     -3.059295   -1.408255    2.984010
H     -4.034944    2.751725   -2.664854
H     -5.665346    1.620475    1.513751
H     -5.336482    2.601169   -0.595228
H     -2.068020    1.320318   -2.988360
H     -1.762161   -1.267043    0.940419
H     -1.244870   -1.529876   -0.916564
H     -0.847132   -0.537314   -2.409782
H      0.357523    1.048714   -0.996462
H     -0.021770    0.226383    0.506037
H      4.159141    0.311300   -1.062221
H      1.255906    0.224739    2.083353
H      2.610771   -2.428042   -0.376974
H      1.904597   -0.655469   -1.691326
H      7.198925    2.015755    0.006213
H      1.361317   -3.252327    1.320915
H      6.757166    2.916658    2.225791
