73

C     -4.364135   -1.704453    1.688020
C      3.831582    1.638573    0.297535
C     -5.496103    1.286514    0.871012
C      9.457192   -0.852711    0.289463
C     -2.587119    3.664229   -0.209785
C     -2.040721    1.821836   -1.705995
C     -2.083305   -3.063142   -0.895558
C     -3.358151   -2.782148   -0.219149
C     -0.891686   -2.255510   -0.473740
C      4.441772   -0.685318   -0.133957
C      1.992446   -1.796162    0.505314
C      0.411206    2.447914   -0.462690
C      6.047435    0.815623   -1.322724
C     -3.562055   -1.446390    0.399870
C      3.516237    0.179603    0.203616
C     -4.349531    0.913808   -0.082839
C      8.067790   -0.515458   -0.087450
C      5.849304   -0.255919   -0.440620
C     -0.390747   -2.585135    0.885415
C      2.137132   -0.291941    0.478746
C      0.844878   -2.238564    1.369336
C     -0.753416    2.162177    0.412595
C      0.938649    1.237623   -1.149557
C     -4.418304   -0.526803   -0.429813
C     -3.089138    1.400405    0.477765
C     -2.100722    2.210582   -0.271155
N      6.916612   -0.779729    0.062053
O     -0.682268    0.952366    1.073174
O      1.099186    1.361373   -2.410743
O     -4.089750   -0.776863   -1.775761
O     -2.817720    1.132617    1.636448
O      0.519880   -3.628202    1.049585
O      1.188628    0.161460   -0.407025
S      7.887197    0.911491   -1.289824
H     -5.293576   -2.245811    1.413492
H     -3.748444   -2.329796    2.385338
H     -4.668866   -0.795786    2.201300
H      4.880315    1.796395    0.503071
H      3.288160    2.086413    1.182624
H      3.545822    2.133525   -0.632757
H     -6.238962    0.497399    0.971196
H     -6.037857    2.194463    0.529771
H     -5.086226    1.534292    1.868150
H     10.001470    0.049602    0.694216
H      9.402941   -1.673943    1.002380
H     10.059126   -1.177417   -0.591358
H     -2.868873    3.843007    0.849113
H     -3.475907    3.797965   -0.872830
H     -1.813814    4.352494   -0.561069
H     -1.727255    0.776939   -1.845018
H     -1.374563    2.532460   -2.277545
H     -3.038644    1.980768   -2.159641
H     -1.803758   -4.134523   -0.701776
H     -2.135602   -3.014542   -2.014855
H     -3.572413   -3.602302    0.506594
H     -4.169472   -2.905351   -1.005130
H     -1.160271   -1.193518   -0.601139
H     -0.073635   -2.549242   -1.203765
H      4.285741   -1.755407   -0.234381
H      2.021547   -2.230896   -0.489043
H      2.912192   -2.178960    1.054095
H      1.242688    2.869342    0.168523
H      0.144142    3.270760   -1.151188
H      5.407596    1.446484   -1.892525
H     -2.632834   -0.999744    0.735672
H     -4.609679    1.481499   -1.028720
H     -1.240162   -2.697139    1.627336
H      1.914573    0.047091    1.534771
H      1.014543   -2.034429    2.450756
H     -0.778940    2.952169    1.214018
H     -5.505028   -0.827286   -0.342944
H     -0.264182    1.004346    1.948731
H     -4.874151   -0.415066   -2.292228
