76

C     -4.403483   -2.747027   -0.860270
C      3.846893   -0.414103    1.017257
C     -4.785190    1.807232    0.648379
C      8.336872    0.379255    1.055650
C     -2.770997    3.557513   -1.304944
C     -2.321991    3.330247    1.079881
C      0.647156   -4.885066    0.472737
C     -1.863483   -3.245460    0.050966
C     -2.519920   -1.941692    0.448133
C     -0.560716   -3.006012   -0.723247
C      3.801636    1.219012   -0.723014
C      1.982868   -1.694923   -1.029110
C      0.367591    2.362539    0.451540
C      5.450229    3.016100   -0.301953
C     -3.481126   -1.537803   -0.630976
C      3.172790    0.227771   -0.128471
C     -3.682608    0.780941    0.368392
C      7.161959    1.094945    0.541878
C      5.142828    1.690773   -0.273242
C      1.821573   -0.241266   -0.601077
C     -0.593546    2.772001   -0.597303
C      1.799247   -2.667575    0.077791
C      0.303437    1.004155    0.948122
C     -4.357211   -0.389327   -0.285391
C     -2.573614    1.332968   -0.415690
C     -2.044235    2.712239   -0.244867
C      0.575814   -3.422288    0.144464
N      6.060546    0.876092    0.155991
O     -0.357398    2.169809   -1.832723
O     -0.395302    0.787396    1.995217
O     -5.331123   -0.852067    0.622183
O     -1.989212    0.673714   -1.293313
O      0.913419   -0.085987    0.417669
O      0.919294   -2.476444    1.112678
S      7.192845    2.982096    0.349606
H     -4.099439   -3.347688   -1.722852
H     -5.447983   -2.396355   -1.084683
H     -4.478949   -3.329222    0.080185
H      4.277128    0.347750    1.725738
H      3.207541   -1.058233    1.626522
H      4.661879   -1.056179    0.604674
H     -4.841017    2.581627   -0.120485
H     -4.705526    2.212100    1.689448
H     -5.799837    1.308279    0.643121
H      8.043473   -0.191733    1.969521
H      9.195742    1.077095    1.263664
H      8.639565   -0.358397    0.274917
H     -3.395038    4.361161   -0.816231
H     -3.377669    2.945153   -1.988649
H     -2.058096    4.122306   -1.943629
H     -1.503234    4.078044    1.302239
H     -3.238621    3.992441    1.015483
H     -2.370341    2.656107    1.936407
H      0.856097   -5.428386   -0.494975
H      1.472149   -5.152439    1.154060
H     -0.307040   -5.318266    0.834832
H     -2.494004   -3.877795   -0.584096
H     -1.662023   -3.809341    0.984865
H     -1.743444   -1.215586    0.682070
H     -3.150979   -2.165690    1.357890
H     -0.524466   -3.614404   -1.649941
H     -0.559624   -1.954527   -1.018518
H      3.324869    1.696135   -1.558203
H      3.015889   -1.766926   -1.462705
H      1.304469   -1.945709   -1.878749
H      0.287676    3.116106    1.296378
H      1.394655    2.583025    0.038895
H      4.955022    3.940633   -0.586349
H     -2.947630   -1.420575   -1.619432
H     -3.298591    0.463883    1.356885
H      1.608448    0.309814   -1.526160
H     -0.380827    3.869674   -0.790599
H      2.740584   -3.204156    0.399967
H     -4.898242   -0.072403   -1.189598
H     -0.919739    2.520986   -2.537227
H     -6.248669   -0.668068    0.304234
