39

C     -4.311923   -0.681461    0.662563
C     -1.436433    1.591308   -0.401812
C     -2.473887   -0.269865   -1.629449
C     -0.139251    0.862436   -0.423175
C     -1.237457   -1.099725   -1.402652
C      3.045836   -0.684295    0.566726
C      4.403962    0.767360   -0.807338
C      4.002945   -0.561543    1.566025
C      5.318833    0.847468    0.229229
C     -3.092489    0.183917    0.765367
C     -2.647701    0.741670   -0.554585
C     -0.054106   -0.163506   -1.530803
C      3.287470   -0.001151   -0.606349
C      1.231901   -0.866638   -1.437422
N     -2.053173   -0.478145    1.504332
N      5.085958    0.182325    1.374555
N      2.421714   -0.095467   -1.546970
O      1.263449   -2.111976   -1.265877
H     -4.817863   -0.612827   -0.315563
H     -4.061969   -1.759178    0.836842
H     -5.080382   -0.426338    1.427043
H     -1.496825    2.187503    0.522087
H     -1.431240    2.320782   -1.263570
H     -3.369599   -0.878969   -1.835399
H     -2.287087    0.304185   -2.584538
H      0.116458    0.377817    0.545231
H      0.675341    1.600435   -0.615441
H     -1.212708   -1.592967   -0.418592
H     -1.171771   -1.886312   -2.198691
H      2.167779   -1.289331    0.726230
H      4.566141    1.290712   -1.736383
H      3.824379   -1.095201    2.495891
H      6.216385    1.446752    0.108118
H     -3.395609    1.075470    1.391181
H     -3.480753    1.428958   -0.891220
H     -0.191600    0.387719   -2.483921
H     -2.316036   -1.398539    1.880580
H     -1.647153    0.120262    2.258564
H      5.778464    0.236355    2.173629
