40

C     -4.503589   -0.406901   -0.299721
C      5.991126   -0.618927   -0.672787
C      4.879301   -1.240501   -1.222902
C      5.773156    0.408749    0.219163
C      3.597157   -0.863230   -0.905733
C      4.500525    0.805081    0.552988
C     -3.007133    1.770152    0.161221
C     -2.748100    0.946143    1.402011
C     -1.101468    0.859794   -1.068596
C      3.425425    0.172263   -0.006592
C     -2.593584    0.813352   -0.936894
C     -2.517640   -0.448931    0.917217
C     -0.367109    0.395328    0.155046
C     -1.070747   -0.800922    0.749742
C     -0.975034   -1.904090   -0.240823
C      2.075777    0.592060    0.346996
N     -3.082695   -0.447912   -0.440476
O     -1.999875   -2.386354   -0.785822
O      0.242439   -2.459791   -0.617075
O      1.920626    1.526569    1.158449
O      0.944817   -0.013873   -0.189660
H     -4.871841   -1.470448   -0.393868
H     -4.852127   -0.080337    0.706166
H     -5.019006    0.145392   -1.111634
H      6.974899   -0.951084   -0.953270
H      5.018594   -2.054876   -1.930007
H      6.625076    0.921304    0.672240
H      2.712933   -1.322372   -1.312632
H      4.326331    1.623892    1.263665
H     -2.402314    2.700906    0.138862
H     -4.081826    2.010462    0.027572
H     -3.686174    0.974734    2.006053
H     -1.946462    1.349583    2.035506
H     -0.759115    0.286001   -1.961919
H     -0.809247    1.914885   -1.252880
H     -3.035910    1.061236   -1.907566
H     -3.039847   -1.156034    1.575744
H     -0.267321    1.226332    0.878662
H     -0.647783   -1.096781    1.722148
H      0.377764   -2.780854   -1.586205
