22

C     -0.971973   -1.390558   -0.431365
C     -0.394740    0.820068    0.126525
C     -2.243689   -0.978783   -0.798828
C     -1.653540    1.274203   -0.229613
C      2.332115   -0.492101   -0.620948
C     -0.023110   -0.501912    0.037889
C     -2.570245    0.358088   -0.692357
C      1.344004   -0.936376    0.434248
N      2.383620    0.917049   -0.792350
O     -3.852646    0.733218   -1.069447
O      1.732421   -0.356799    1.645750
H     -0.660533   -2.435304   -0.495349
H      0.322264    1.558984    0.492101
H     -2.948947   -1.717744   -1.160405
H     -1.916554    2.336377   -0.146228
H      2.080215   -0.961834   -1.597761
H      3.347911   -0.847667   -0.345755
H      1.351272   -2.043069    0.493072
H      2.637295    1.242400   -1.736094
H      2.824216    1.442848   -0.018216
H     -4.122341    1.708057   -1.002597
H      1.002986    0.270855    1.925332
