56

C      4.243498    1.707017   -0.985727
C      5.671179    1.281332   -0.900794
C     -3.012915    3.089428    0.779508
C     -5.536478   -3.441633   -1.005082
C     -4.257397    3.661591    0.627111
C     -6.786875   -2.897371   -1.162698
C     -2.767313    1.748017    0.572395
C     -4.477321   -2.634220   -0.628526
C     -5.258632    2.796245    0.248915
C     -6.967619   -1.552185   -0.942896
C      3.320897   -1.511778   -0.166967
C      2.359103   -0.099038    1.431360
C      2.154229   -1.595307   -0.868175
C      1.155409   -0.172037    0.726976
C     -2.229215   -0.992440    0.116070
C     -1.411469   -0.559616   -1.101464
C      4.741281   -0.716450    1.720793
C      3.469965   -0.774676    0.989882
C      1.004490   -0.904613   -0.423489
C     -3.791519    0.924184    0.196376
C     -4.673947   -1.294439   -0.412797
C     -5.050263    1.443508    0.031772
C     -5.939276   -0.714877   -0.567069
C      5.616140    0.408817    1.251790
C      6.897718    0.376631    2.066131
N     -3.552585   -0.472864   -0.021272
O      6.843210    0.516667    3.302502
O      8.105858    0.191590    1.415869
O      5.946122    0.233751   -0.066970
O     -0.140290   -0.993816   -1.124000
O     -6.138251    0.634067   -0.351108
H      3.795223    1.938888   -0.000722
H      4.228436    2.701986   -1.530220
H      3.586231    1.003784   -1.534985
H      6.268183    2.185476   -0.650676
H      6.010501    1.002156   -1.936319
H     -2.187583    3.756905    1.082708
H     -5.309085   -4.484910   -1.157359
H     -4.431699    4.728479    0.796013
H     -7.625183   -3.542854   -1.461888
H     -1.759040    1.358082    0.723758
H     -3.486077   -3.058054   -0.506404
H     -6.265200    3.206676    0.115831
H     -7.949713   -1.119537   -1.065778
H      4.190035   -2.059723   -0.541050
H      2.423003    0.500420    2.343712
H      2.080731   -2.182191   -1.766879
H      0.337200    0.403282    1.151583
H     -2.095257   -2.064156    0.160939
H     -1.763264   -0.568247    1.062703
H     -1.964700   -1.106943   -1.961150
H     -1.588095    0.501027   -1.386056
H      5.335258   -1.668368    1.597756
H      4.526995   -0.633095    2.812594
H      5.110257    1.376131    1.450747
H      8.995108    0.139300    1.914580
