14

C      1.284431    0.679570    0.056195
C     -1.740845    0.572288    0.152984
C      0.520201   -0.618785    0.202169
C     -0.822671   -0.436411   -0.403436
O      1.215696   -1.609600   -0.468276
O     -1.155176   -1.120543   -1.354052
H      1.202522    1.306134    0.962899
H      2.350850    0.441209   -0.091678
H      0.934385    1.286407   -0.802581
H     -2.426544    0.146809    0.925721
H     -1.150085    1.348040    0.656802
H     -2.327641    1.108948   -0.646509
H      0.468970   -0.882852    1.263399
H      1.645908   -2.221214    0.157131
