64

C      9.328997    1.557801    0.773995
C     -4.057960   -2.013988   -1.637447
C     -5.423002   -1.968378   -1.882204
C     -7.597293   -1.245331   -1.321813
C     -8.459416   -0.557311   -0.513209
C      0.483354   -0.073437    0.549145
C      0.913712   -0.153774   -1.770473
C      1.846712   -0.009653    0.778981
C      2.267042   -0.089602   -1.521874
C      5.488625    1.463448    1.259356
C      5.748853   -1.002043    1.409541
C      6.303091    1.463139   -0.018277
C      6.611328   -0.982685    0.162312
C     -4.383458   -0.648218    0.284013
C     -2.100611   -1.372527   -0.249371
C     -6.598497    0.099576    0.871270
C      8.621031    0.466419    0.068381
C     -3.549170   -1.350751   -0.552293
C     -6.258270   -1.270884   -1.053601
C      0.009879   -0.146072   -0.732756
C     -7.940866    0.114248    0.586398
C     -5.756318   -0.600986    0.039788
C      2.780978   -0.014346   -0.215927
C      4.721168    0.124464    1.254204
C     -1.454687   -0.214017   -0.968917
C     -8.858615    0.842717    1.441385
C     -2.010483    1.087781   -0.520402
N      9.323422   -0.406615   -0.574695
N     -8.477369    1.491407    2.476316
N    -10.244410    0.838316    1.118615
N      7.221620    0.341299    0.069184
O     -2.643415    1.854353   -1.290592
O     -1.828196    1.481167    0.798610
O      4.120527    0.048026    0.002751
H      8.865357   -1.208510   -1.096996
H     10.396873    1.282588    0.968792
H      9.344455    2.494061    0.206079
H      8.850249    1.767270    1.751936
H     -3.461076   -2.581339   -2.330260
H     -5.826442   -2.490812   -2.737596
H     -7.962017   -1.791817   -2.203558
H     -9.525974   -0.536723   -0.726508
H     -0.180826   -0.064265    1.397524
H      0.569157   -0.210472   -2.794638
H      2.162593    0.046464    1.816486
H      2.960061   -0.096335   -2.337283
H      6.099525    1.571648    2.159830
H      4.706499    2.243039    1.165809
H      5.200120   -1.946861    1.462751
H      6.318795   -0.790584    2.328542
H      5.584528    1.200460   -0.839082
H      6.819436    2.418428   -0.192454
H      5.948939   -1.161794   -0.691193
H      7.371165   -1.780091    0.169449
H     -4.027023   -0.113686    1.149033
H     -1.960879   -1.199810    0.852312
H     -1.633629   -2.331767   -0.467821
H     -6.139454    0.607500    1.718195
H      4.082127    0.135886    2.128457
H     -1.612940   -0.269770   -2.066461
H     -7.503827    1.562827    2.802908
H    -10.932207    0.336183    1.697730
H    -10.542261    1.362227    0.273099
H     -2.119630    2.392509    1.129697
