15

C     -1.848763   -0.579821    0.846240
C     -1.378877    0.505267   -0.055339
C     -0.022760    0.765195   -0.417176
O      2.811536    0.908335    0.191476
O      1.745601   -1.519421   -0.430320
O      1.205023   -0.285224    1.819267
O     -0.809199   -0.050439   -1.286847
P      1.396310   -0.040671    0.352960
H     -2.427015   -0.119801    1.674824
H     -1.082102   -1.275626    1.178364
H     -2.606711   -1.185857    0.270214
H     -2.147118    1.293133   -0.258081
H      0.224056    1.734093   -0.894762
H      2.563547    1.858518    0.136254
H      2.376470   -2.007682    0.179809
