15

C     -1.873141   -0.289334    0.182710
C     -1.188422    0.459239   -0.912203
C      0.204096    0.545102   -1.137128
O      0.940468   -0.933189    1.244537
O      2.655210    0.917641    0.213505
O      2.182064   -1.263841   -1.080521
O     -0.450858    1.609578   -0.335288
P      1.483889   -0.262550   -0.178618
H     -2.909183    0.140478    0.307781
H     -2.052125   -1.351195   -0.123756
H     -1.393399   -0.204902    1.168824
H     -1.879507    0.770333   -1.736142
H      0.572274    1.022871   -2.063699
H      0.437055   -1.757643    1.095992
H      3.271578    0.597412    0.915855
