64

C     -9.011378    0.633647   -0.697729
C      2.391466    0.949483   -1.082085
C      2.823991   -0.040227   -1.935930
C      4.564509   -1.549677   -2.646552
C      5.840171   -2.039921   -2.489287
C      0.800295    0.010798    1.259484
C     -0.508394    1.985677    1.441804
C     -0.327950   -0.672524    0.860746
C     -1.642404    1.270232    1.034373
C     -4.411401   -0.556528   -1.307598
C     -4.944523   -1.130341    1.042267
C     -5.644548    0.317462   -1.439199
C     -6.282909   -0.477930    0.866878
C      4.468293    0.973106    0.078539
C      2.690004    2.536389    0.793448
C      6.175010   -0.545396   -0.660792
C     -7.967127   -0.359485   -0.972606
C      3.202859    1.468707   -0.065744
C      4.116905   -0.552936   -1.793691
C      0.697693    1.347879    1.549225
C      6.651116   -1.542073   -1.498015
C      4.901538   -0.032437   -0.791874
C     -1.563277   -0.071466    0.738540
C     -3.957695   -0.408498    0.151493
C      1.890011    2.131700    1.981398
C      8.011531   -2.056134   -1.320737
C      2.587749    1.506554    3.095055
N     -8.213562   -1.409559   -1.642458
N      8.445150   -2.971411   -2.091652
N      8.842799   -1.540088   -0.298328
N     -6.621965   -0.177846   -0.491064
O      3.768421    1.149018    3.030421
O      1.931705    1.282638    4.307380
O     -2.648143   -0.792750    0.340204
H     -8.976689    0.861231    0.397609
H     -8.864506    1.593013   -1.237245
H     -9.993480    0.224762   -0.993196
H      1.399223    1.358017   -1.188050
H      2.192191   -0.436284   -2.717772
H      3.894367   -1.907276   -3.406499
H      6.221956   -2.832410   -3.153208
H      1.775300   -0.494586    1.349805
H     -0.594811    3.056696    1.672997
H     -0.209488   -1.719534    0.641908
H     -2.538187    1.835248    0.975924
H     -4.687966   -1.588660   -1.540320
H     -3.634019   -0.149253   -1.963818
H     -4.974216   -2.213449    0.847572
H     -4.624048   -0.953139    2.089706
H     -6.030729    0.311050   -2.466584
H     -5.376687    1.374559   -1.149233
H     -7.067587   -1.187444    1.253294
H     -6.393069    0.442263    1.477112
H      5.179952    1.331073    0.829707
H      2.067965    3.257074    0.172555
H      3.552772    3.204617    1.114729
H      6.794431   -0.137932    0.126387
H     -4.069369    0.669632    0.376781
H      1.482345    3.126386    2.418182
H     -7.545423   -2.150666   -1.878806
H      9.404762   -3.347316   -1.981192
H      8.795450   -0.530222   -0.075257
H      9.490867   -2.154046    0.223702
H      2.272755    0.520533    4.904261
