24

C      3.157629    0.917222   -0.123989
C      2.465032    0.496963   -1.226690
C      2.653657    0.630348    1.113499
C      1.281434   -0.202963   -1.142975
C      1.485130   -0.060370    1.228200
C     -0.469201   -1.223640    0.321464
C     -1.758544    0.561869   -0.865160
C      0.800696   -0.475807    0.124202
C     -1.633972   -0.243214    0.386267
N     -2.854103   -0.943564    0.701093
O     -2.780707    1.490988   -0.677217
H      4.090908    1.468794   -0.226064
H      2.873255    0.729682   -2.192476
H      3.185928    0.953788    2.010675
H      0.724546   -0.540548   -1.994451
H      1.116302   -0.269480    2.224536
H     -0.411982   -1.718218    1.308371
H     -0.636332   -1.968716   -0.493501
H     -0.821820    1.078783   -1.085869
H     -2.004719   -0.127057   -1.705963
H     -1.420074    0.432177    1.249175
H     -3.507556   -0.830452   -0.081539
H     -2.700817   -1.959143    0.885816
H     -2.834689    1.802558    0.262596
