46

C      0.879551    3.126500   -0.721463
C      6.988345   -1.516444   -0.989936
C     -6.876186   -1.738315   -0.714669
C      6.246208   -2.596758   -0.584935
C      6.408213   -0.264169   -0.909187
C     -5.657892   -1.355287   -1.232189
C     -7.205301   -1.489699    0.597249
C      4.962581   -2.423029   -0.114575
C      5.105543   -0.092426   -0.431293
C     -4.759421   -0.705336   -0.392015
C     -6.288416   -0.840387    1.407980
C     -0.531389    0.221401    1.178255
C     -1.467111    2.245805    0.404821
C     -1.792847   -0.235085    1.582610
C     -2.722883    1.823126    0.793571
C     -0.370553    1.446551    0.596526
C      4.355402   -1.172437   -0.023653
C     -5.046557   -0.435162    0.929026
C     -2.882558    0.594471    1.376370
C      1.735684    0.855701   -0.498579
C      2.404427    1.027755    1.685113
C      0.955597    1.911396    0.184400
N      3.028281   -1.064580    0.469910
N      2.432092    0.182967    0.545303
O      1.808141    0.572304   -1.705286
O      2.932586    0.759561    2.828168
O     -4.158568    0.204949    1.752657
O      1.716072    2.168583    1.338576
H      0.502927    4.008987   -0.210160
H      0.282666    2.869898   -1.609154
H      1.933914    3.302559   -1.082298
H      8.007325   -1.595965   -1.371097
H     -7.570929   -2.236960   -1.355945
H      6.687228   -3.582153   -0.643861
H      6.979234    0.601278   -1.222322
H     -5.400674   -1.544299   -2.244385
H     -8.175573   -1.810282    0.964283
H      4.361508   -3.267603    0.208482
H      4.662453    0.891101   -0.370575
H     -3.810413   -0.414959   -0.824607
H     -6.529256   -0.637852    2.441669
H      0.300249   -0.450415    1.353164
H     -1.395170    3.242294   -0.058482
H     -1.947474   -1.191124    2.040992
H     -3.573860    2.499120    0.620507
H      2.486806   -1.895580    0.778328
