35

C      1.022132    1.013917   -0.479590
C      0.741207   -0.015101    0.561384
C     -4.054947    0.539315    0.889037
C      2.443300    1.524721   -0.132539
C     -2.808203   -0.073487    0.280071
C     -0.562731   -0.721226    0.512588
C     -5.147466    0.212728   -0.090826
C     -0.824099   -1.459312   -0.713043
C      4.646422    0.458423    0.234804
N      5.269157    1.579893    0.285552
N      5.271887   -0.745452    0.651000
N     -1.627529    0.083111    1.032186
N      3.313427    0.379939   -0.231340
O     -6.315780    0.633339    0.096012
O     -4.930813   -0.554074   -1.230255
O     -1.560475   -1.063699   -1.691718
O     -0.290924   -2.747912   -0.976394
H      0.321412    1.858457   -0.493316
H      1.154476    0.530756   -1.475009
H      0.823067    0.499153    1.573653
H      1.595319   -0.743131    0.596048
H     -4.244512    0.143145    1.894147
H     -3.950870    1.633261    0.919628
H      2.462313    2.026117    0.861376
H      2.702696    2.230416   -0.959193
H     -2.675597    0.509042   -0.667448
H     -3.025536   -1.142645    0.123102
H     -0.450038   -1.554137    1.314987
H      4.796068    2.456994   -0.022695
H      5.427373   -1.523600   -0.018040
H      5.590321   -0.880349    1.651636
H     -1.714469    0.090891    2.071835
H      3.025260   -0.546553   -0.665254
H     -5.614177   -1.224613   -1.570126
H     -0.807673   -3.408326   -1.561608
