16

C     -1.032519    1.021206    0.604090
C     -0.187570    0.634346   -0.619401
C     -1.655022   -0.357097    0.873412
C      0.262244   -0.747075   -0.211176
C      1.696777   -0.615398    0.213985
O      2.061125   -0.868099    1.378416
O      2.588446   -0.196256   -0.767036
O     -0.534024   -1.164702    0.824622
H     -1.802905    1.752865    0.358991
H     -0.385691    1.304783    1.458219
H      0.625949    1.332163   -0.790798
H     -0.907280    0.534792   -1.454402
H     -2.153295   -0.368503    1.836101
H     -2.334838   -0.532347    0.001231
H      0.171047   -1.443882   -1.083766
H      3.587557   -0.286795   -0.560219
