67

C      0.338058   -4.561321    0.248992
C      6.628554    2.762751   -0.180953
C      6.035121   -0.211044    1.849359
C      7.997099    2.818049   -0.145323
C      4.648794   -0.266516    1.812890
C     -7.190243    0.797680    0.023324
C     -5.942018    2.101185    1.514958
C     -3.624003   -1.362130   -0.603713
C     -2.469632    0.604639    0.403602
C     -8.378485    1.232995    0.619762
C     -7.127564    2.539698    2.114653
C     -4.809122   -0.511090   -0.897882
C     -3.545642    1.501822   -0.097118
C      8.051634    0.851067    1.221748
C      4.564152    1.663670    0.469670
C      1.988626    0.027959   -1.507009
C     -1.829976   -0.266473   -1.809441
C      0.936566   -1.560512    0.001405
C     -0.495415   -3.041037   -1.341200
C      6.673101    0.808481    1.176764
C      5.942494    1.771543    0.469369
C      8.710532    1.861460    0.556649
C     -5.951316    1.226943    0.463832
C      3.890597    0.662241    1.127776
C      0.764610   -0.237225   -2.348234
C     -2.334958   -0.612477   -0.449615
C     -0.370398   -1.695783   -0.699957
Cl    10.456247    1.906261    0.619896
N     -8.299823    2.095727    1.652451
N     -4.788069    0.746886   -0.157408
N      1.669207   -0.372808   -0.206627
N     -0.409211   -0.643431   -1.711027
O      0.774011   -0.101016   -3.605337
O      1.542129    1.967668    1.070384
O      1.692966   -0.011242    2.430773
O     -0.588553   -4.139340   -0.610195
O     -1.405038   -1.469633    0.156656
S      2.122141    0.561096    1.102074
H      0.528019   -3.894287    1.096751
H      0.084937   -5.580571    0.693797
H      1.355563   -4.746072   -0.207556
H      6.086972    3.507581   -0.726656
H      6.580068   -0.978045    2.410747
H      8.553461    3.593217   -0.652846
H      4.111838   -1.051800    2.328528
H     -7.284789    0.107031   -0.809054
H     -5.008395    2.465130    1.907101
H     -3.497167   -2.056687   -1.485388
H     -3.773464   -2.042464    0.264104
H     -1.490795    1.112874    0.529188
H     -2.800360    0.249654    1.420251
H     -9.352312    0.908427    0.289164
H     -7.107500    3.225938    2.938711
H     -4.915424   -0.314569   -1.975646
H     -5.706937   -1.091071   -0.531197
H     -3.603621    2.363903    0.567365
H     -3.345464    1.923762   -1.111405
H      8.631061    0.101397    1.772930
H      3.986855    2.398256   -0.070961
H      2.151979    1.129736   -1.534022
H      2.883884   -0.434565   -1.956384
H     -2.327298   -0.864376   -2.606216
H     -1.995147    0.782224   -2.022217
H      1.628056   -2.407207   -0.245970
H      0.737456   -1.624757    1.112445
H      0.405577   -3.199533   -2.052348
H     -1.384224   -3.029874   -2.062016
