23

C     -3.412478    0.028370    0.087244
C     -2.725000    1.021005    0.739616
C     -2.743017   -0.837911   -0.775892
C     -1.372326    1.136266    0.520779
C     -1.390238   -0.711094   -0.985305
C      0.741282    0.443580   -0.534713
C      2.987692   -0.214117    0.250253
C     -0.718529    0.285020   -0.326435
C      1.499281   -0.374589    0.461128
O      3.361707   -0.615638   -1.023793
O      1.162443    0.032421    1.733905
H     -4.485029   -0.108604    0.223477
H     -3.236520    1.694391    1.408480
H     -3.294731   -1.614055   -1.282695
H     -0.805266    1.914142    1.025448
H     -0.900769   -1.399937   -1.661710
H      1.021952    1.508607   -0.385366
H      0.992725    0.152667   -1.589674
H      3.544105   -0.827451    0.997842
H      3.295592    0.837412    0.402298
H      1.266883   -1.445742    0.278764
H      4.159142   -0.125691   -1.359064
H      1.051100   -0.779051    2.288794
