26

C     -2.519143   -0.216211    1.145296
C      1.655899   -0.554487    1.310423
C      1.871664    0.140375   -0.968834
C      0.272353   -0.521938    1.205959
C      0.479681    0.172587   -1.072161
C      2.446960   -0.227273    0.235970
C     -0.304977   -0.158184    0.013945
C      3.914555   -0.265771    0.359777
C     -2.206158    1.122551   -0.861252
C     -1.774344   -0.104656   -0.159329
N     -2.145521   -1.254532   -0.958930
O      4.712597    0.060024   -0.710119
O      4.427447   -0.600821    1.457864
O     -2.788495    1.011484   -1.964885
O     -2.001877    2.393492   -0.364541
H     -2.079850    0.351628    1.960058
H     -3.556228    0.196703    0.987414
H     -2.670887   -1.265886    1.470939
H      2.060940   -0.845333    2.263641
H      2.513349    0.392246   -1.795951
H     -0.376708   -0.769856    2.020103
H      0.093017    0.464776   -2.029800
H     -3.025918   -1.086439   -1.480197
H     -2.143258   -2.138183   -0.407673
H      5.608897    0.503404   -0.538922
H     -2.463996    3.200299   -0.797274
