56

C     -0.342334    3.485617   -1.365922
C     -0.312856    3.470378    1.138227
C     -4.886926    1.035074   -1.459558
C     -4.395551    2.318750   -1.502706
C     -4.094474    0.015810   -0.988719
C     -3.110638    2.559424   -1.070701
C     -2.625347   -2.605280    1.256490
C     -1.454510   -2.899939   -0.769862
C     -2.746210   -3.981887    1.413829
C     -1.551049   -4.267778   -0.654021
C      1.509336    0.270653    1.350519
C      0.501142   -0.337603    0.806810
C      3.177652   -1.553065    1.001604
C      4.706295   -0.352757   -0.658472
C     -0.200372    2.653851   -0.097533
C     -1.982898   -2.040442    0.171369
C     -2.202433   -4.817343    0.447030
C      2.718370   -0.456553    1.880681
C      3.578390   -1.261524   -0.381231
C     -2.784631    0.237061   -0.544297
C     -2.315241    1.531313   -0.598609
C     -0.717730    0.211860    0.250756
C      4.501381    0.996500   -0.146401
C     -1.838591   -0.604436   -0.030592
F     -2.311373   -6.161408    0.583392
N     -1.040094    1.463297   -0.104128
O      2.195464   -1.106977    3.052458
O      2.495358   -0.823284   -1.177711
O      5.217186    1.465871    0.790496
O      3.496727    1.780406   -0.703913
H     -0.696225    4.499397   -1.168680
H     -0.834076    2.910903   -2.144010
H      0.711627    3.654486   -1.772139
H     -0.833025    2.927644    1.971847
H      0.691287    3.745815    1.564982
H     -0.810288    4.444172    0.934124
H     -5.892903    0.866607   -1.801312
H     -5.022115    3.146289   -1.878351
H     -4.438861   -1.017759   -0.934659
H     -2.784788    3.575262   -1.105417
H     -3.049829   -1.957095    2.010705
H     -0.952131   -2.483658   -1.619675
H     -3.257360   -4.338828    2.280466
H     -1.122318   -4.898809   -1.414881
H      1.518781    1.314972    1.493900
H      0.591455   -1.455980    0.754278
H      4.053782   -2.111295    1.479036
H      2.375213   -2.356914    1.024341
H      4.867966   -0.358616   -1.777880
H      5.625570   -0.782850   -0.178845
H      0.844797    2.253366   -0.183391
H      3.474671    0.211207    2.282863
H      3.863336   -2.263796   -0.847778
H      1.598338   -1.795227    2.718229
H      2.755457   -0.742529   -2.117594
H      3.537597    2.787645   -0.677646
