67

C     -0.603627    4.103689   -1.745045
C      7.317398   -1.362325    0.074097
C      5.180409    0.443606    2.365656
C      8.174643   -1.970856    0.958810
C      4.320369    1.055318    1.485786
C     -7.150136   -0.290357    0.517032
C     -5.944574   -0.763965    2.472746
C     -2.531081   -1.254260    0.808668
C     -3.500190    0.271931   -0.960643
C     -8.238963    0.116556    1.304703
C     -7.044940   -0.352711    3.239161
C     -3.818881   -1.989950    0.808673
C     -4.714868   -0.664428   -1.030689
C      7.046644   -0.977738    2.799014
C      5.450207    0.060237   -0.344785
C      2.158789   -0.476831   -1.993957
C     -1.659703   -1.229125   -1.546534
C      0.980500    0.706386   -0.276258
C     -0.495696    1.798234   -1.869117
C      6.185568   -0.365793    1.921255
C      6.311405   -0.551110    0.552598
C      8.043383   -1.782448    2.310658
C     -5.990777   -0.735001    1.094496
C      4.448775    0.868575    0.128212
C      0.834048   -1.087136   -2.294321
C     -2.299831   -0.431686   -0.437407
C     -0.379070    0.606989   -0.980798
Cl     9.158353   -2.576378    3.403686
N     -8.165191    0.077554    2.638253
N     -4.895771   -1.125119    0.336877
N      1.960987    0.777331   -1.338607
N     -0.361313   -0.658996   -1.670022
O      0.821897   -2.022602   -3.147570
O      4.105997    1.926042   -2.247395
O      2.931122    3.010128   -0.442978
O     -0.498299    2.928445   -1.025026
O     -1.383405    0.566425   -0.057590
S      3.362228    1.645964   -0.955856
H      0.245448    4.232699   -2.462237
H     -0.536348    4.933501   -1.010634
H     -1.585888    4.217881   -2.249135
H      7.439230   -1.525295   -1.001400
H      5.043927    0.618831    3.428839
H      8.965227   -2.607573    0.593701
H      3.542741    1.685348    1.890612
H     -7.278352   -0.240605   -0.564592
H     -5.069040   -1.095382    3.013735
H     -2.469277   -0.603669    1.684777
H     -1.683413   -1.994234    0.850967
H     -3.298740    0.542950   -2.024667
H     -3.813603    1.127975   -0.353921
H     -9.126779    0.457758    0.795009
H     -7.000115   -0.379137    4.320779
H     -3.755000   -2.908563    0.181035
H     -4.074097   -2.322383    1.821217
H     -4.425365   -1.537642   -1.669952
H     -5.556956   -0.157845   -1.471335
H      6.915908   -0.808278    3.855811
H      5.605965   -0.128817   -1.408349
H      2.730434   -0.292724   -2.928428
H      2.707354   -1.196983   -1.361215
H     -2.188052   -1.087189   -2.511462
H     -1.683583   -2.284049   -1.277763
H      1.022957    1.596169    0.356243
H      1.089780   -0.243095    0.309686
H      0.445250    1.915537   -2.481015
H     -1.326019    1.790217   -2.572421
