43

C     -3.811253   -2.267119   -1.070716
C      1.741306   -1.798133   -2.351230
C      5.368465    2.655322    0.233539
C      4.704690    1.849627   -0.670578
C      4.720583    3.048531    1.370660
C      3.414454    1.469128   -0.398147
C      3.403733    2.656888    1.643066
C     -3.626326    0.106067    0.689690
C     -2.969644   -0.955253    1.550053
C     -1.615249    0.683466   -0.641234
C      2.744881    1.853233    0.738915
C     -2.924069   -0.070030   -0.635516
C     -2.126388   -1.781018    0.576924
C     -0.706910    0.262699    0.487688
C     -0.697259   -1.264038    0.535658
C      1.378995    1.459542    1.042956
C     -0.122158   -1.705915   -0.773384
N     -2.679100   -1.475506   -0.734426
O      0.790906    1.823740    2.087435
O     -0.771327   -2.372634   -1.613389
O      1.193918   -1.378390   -1.106940
O      0.634187    0.642675    0.177945
H     -3.471150   -3.129720   -1.680739
H     -4.452499   -2.560080   -0.227620
H     -4.462291   -1.661199   -1.755340
H      2.794725   -2.039031   -2.213023
H      1.161682   -2.670458   -2.745891
H      1.610919   -0.983526   -3.088841
H      6.386526    2.936294   -0.014413
H      5.191281    1.531903   -1.562956
H      5.276156    3.682684    2.058580
H      2.907577    0.838985   -1.114068
H      2.966817    3.012057    2.563994
H     -3.492172    1.125656    1.115267
H     -4.711539   -0.053681    0.587045
H     -3.723635   -1.616788    2.029918
H     -2.360114   -0.533613    2.360212
H     -1.090813    0.425264   -1.585817
H     -1.857088    1.764624   -0.599432
H     -3.521411    0.247976   -1.488182
H     -2.147442   -2.843280    0.811104
H     -0.958268    0.716764    1.444847
H     -0.093696   -1.633711    1.377859
