96

C     -9.967327   -2.820496   -0.574305
C      7.614587   -3.802813   -0.318973
C     -0.617506    5.315912    2.209545
C     -3.035470    6.727112   -0.399455
C      1.920048    3.823829   -1.406926
C      0.734152   -4.214707    0.456210
C      0.352818   -0.153387    2.152827
C      4.578231   -1.471795   -2.936003
C     -8.744556   -2.205535    0.093738
C      7.815679   -2.528889    0.436289
C     -1.604442    6.138768    1.460017
C     -7.703894   -3.272261    0.193428
C     -6.477436   -2.723727    0.865192
C     -5.902266   -1.594400    0.074667
C     -4.647604   -1.042775    0.778137
C      6.762017   -2.258267    1.478022
C     -4.138758    0.053040   -0.128119
C      2.522334   -0.174887    1.117359
C     -2.054831    5.844739    0.260876
C      1.137654    2.624465   -0.910036
C      1.084512   -2.913187    1.088465
C      3.432983   -0.885200    0.156458
C      5.398384   -2.147970    0.963397
C     -2.924310    0.652594    0.473423
C      1.634165    1.418175   -0.715012
C      0.584493    0.489194   -0.220104
C     -0.295608    2.644500   -0.605440
C     -0.565041    1.352886    0.113300
C      3.089316    1.195484   -1.030508
C     -1.588920    4.654631   -0.407192
C      4.461168    0.948390   -2.791163
C      1.063662   -0.448330    0.847386
C      4.596192   -0.301926   -1.988823
C      3.322680   -0.266135   -1.194805
O      1.620850   -2.821592    2.210629
O      4.733034   -3.209529    0.778600
O     -2.923484    1.004874    1.651442
O     -2.044163    4.402846   -1.575915
O      5.183338    1.280229   -3.753721
O      5.741707   -0.271808   -1.195756
O      2.325922   -0.899455   -1.929201
O      4.752482   -0.981809    0.653945
O     -1.813357    0.803338   -0.298206
O     -0.671872    3.774004    0.160942
O      3.403057    1.709240   -2.315140
O      0.801701   -1.761232    0.400572
H     -9.682115   -3.237114   -1.562112
H    -10.713994   -2.004408   -0.778744
H    -10.379346   -3.579668    0.102705
H      8.389787   -4.539987   -0.018259
H      7.696590   -3.583962   -1.414022
H      6.629274   -4.227015   -0.066277
H      0.342178    5.273569    1.633975
H     -0.953069    4.291908    2.373812
H     -0.331340    5.815448    3.169178
H     -4.083506    6.465320   -0.202992
H     -2.899464    6.603163   -1.509606
H     -2.812013    7.803493   -0.219444
H      1.873034    3.788118   -2.498938
H      2.973283    3.748569   -1.085268
H      1.513912    4.766591   -1.026489
H     -0.361077   -4.372235    0.606054
H      0.872757   -4.152665   -0.647722
H      1.324336   -5.054588    0.874719
H      0.782885   -0.786641    2.983600
H      0.628696    0.875450    2.451847
H     -0.707576   -0.385201    2.153325
H      3.956947   -2.306466   -2.530343
H      5.612051   -1.812242   -3.104481
H      4.141652   -1.216477   -3.929196
H     -9.000625   -1.807169    1.085262
H     -8.367372   -1.384256   -0.566747
H      8.789351   -2.575443    1.006795
H      7.931142   -1.634691   -0.212790
H     -1.961555    7.045370    1.965334
H     -8.093374   -4.155007    0.743285
H     -7.437256   -3.569038   -0.865139
H     -6.719691   -2.347929    1.884798
H     -5.690367   -3.529209    0.981806
H     -5.574070   -1.877942   -0.943507
H     -6.580167   -0.719251   -0.002465
H     -3.867518   -1.846293    0.798317
H     -4.880760   -0.667446    1.774608
H      6.804628   -3.055762    2.275679
H      7.054771   -1.322162    2.003413
H     -3.951728   -0.350966   -1.144558
H     -4.959968    0.801874   -0.226414
H      2.718303   -0.634195    2.131770
H      2.632260    0.907611    1.169362
H      3.079243   -1.933855    0.073401
H      0.272255   -0.090681   -1.152400
H     -0.815219    2.664296   -1.602829
H     -0.705184    1.614430    1.176610
H      3.773698    1.635923   -0.313337
H      6.490838   -0.512089   -1.765857
H      2.298160   -0.515219   -2.834233
