27

C     -1.311015   -1.863067   -1.022862
C     -1.963475    0.185958    1.033317
C     -2.115610    1.663992   -0.812899
C      2.616674   -1.394438    0.003518
C      1.300403   -1.455720   -0.417759
C      3.196026   -0.172761    0.257597
C      1.119077    0.877102   -0.342319
C     -0.885989   -0.412525   -1.052727
C      0.525258   -0.338008   -0.599785
C      2.450051    0.974703    0.085709
N     -1.777859    0.381550   -0.345925
O      3.046340    2.190314    0.343969
H     -1.060925   -2.248233    0.002687
H     -2.413196   -1.876241   -1.154672
H     -0.874489   -2.467194   -1.818583
H     -3.016884    0.513516    1.288441
H     -1.246760    0.814074    1.601286
H     -1.890457   -0.845141    1.399923
H     -3.206636    1.686217   -1.059734
H     -1.962391    2.393965    0.013954
H     -1.546841    2.004465   -1.693174
H      3.176566   -2.328156    0.129157
H      0.887332   -2.442229   -0.606666
H      4.242791   -0.135820    0.592670
H      0.589006    1.803780   -0.458701
H     -0.885844   -0.103016   -2.133227
H      3.008848    2.592914    1.256120
