23

C      2.910308   -0.949790    0.647529
C      2.216108   -1.321434   -0.469803
C      2.468503    0.122756    1.371690
C      1.083138   -0.621917   -0.861383
C      1.328665    0.823247    0.974155
C     -0.593728    1.194861   -0.583480
C     -2.203309   -0.726557   -0.349773
C      0.610491    0.464025   -0.154057
C     -1.880126    0.708399   -0.015706
O     -1.258499   -1.582516    0.214095
O     -2.893300    1.490363   -0.622742
H      3.795055   -1.482615    0.968026
H      2.569212   -2.170372   -1.039512
H      2.991670    0.451855    2.267462
H      0.554862   -0.937688   -1.748248
H      0.988703    1.668105    1.552826
H     -0.496202    2.272690   -0.268356
H     -0.666534    1.255660   -1.706591
H     -3.176862   -0.999558    0.112414
H     -2.304756   -0.910417   -1.423154
H     -1.931206    0.897608    1.060303
H     -1.580570   -1.983742    1.052559
H     -2.531621    2.337036   -0.978252
