126

C      0.755731    6.970591   -0.049235
C     -4.531906    2.696846    1.413542
C     -4.535492    2.919818   -2.826130
C      5.062712   -0.791006    2.139014
C     -3.759134   -3.617322    2.271117
C      0.323321    0.550098    1.856987
C      6.914770   -2.592230   -3.012192
C     -7.248789    0.599352   -2.281110
C     -7.521934   -2.718397   -1.806727
C      0.199044    5.858684   -0.446788
C      2.854652   -3.978979    0.897882
C      1.825498   -4.990698    1.235694
C     -1.127010    5.430642    0.079934
C      2.450136   -2.987059   -0.148782
C      6.942010    0.793946    0.433386
C      7.959967   -0.225888   -0.030557
C      0.433630   -4.754886    0.836934
C     -3.474399    3.523234   -0.736278
C     -2.248583    3.547817    1.346837
C     -4.120343    1.115407   -1.207238
C      4.385143    0.716470    0.365786
C     -5.321849   -3.193275    0.489201
C      5.633948    0.286923   -1.693937
C      1.419905    3.244994    0.454362
C     -3.345550    3.278510    0.682332
C     -4.507849    2.544395   -1.328129
C      4.089343    0.018358    1.420584
C     -3.885384   -3.267842    0.786896
C      1.719377    0.887625    1.301554
C      5.697948    0.849677   -0.303772
C     -1.041098    4.104097    0.789765
C      1.115397   -2.389794    0.387972
C      8.145296    0.037349   -1.512616
C      1.891990    2.361818    1.557002
C     -0.050851    3.159555    0.221134
C      6.861110   -0.429344   -2.160614
C     -5.381893    0.264660   -0.934416
C     -5.557424   -2.183963   -0.671764
C      2.695273    0.023133    1.980825
C     -4.967146   -0.942565   -0.148225
C     -2.044351   -2.505724   -0.723375
C     -0.958876   -3.443944   -0.678759
C      1.409145   -2.145955    1.825063
C     -3.005820   -2.146423    0.355266
N      0.173827   -3.488725    0.164113
O      8.480294    1.335306   -1.791597
O      1.241480    2.673859    2.780764
O     -0.420409    2.248263   -0.482037
O     -2.215812   -1.890827   -1.843222
O     -1.046979   -4.404503   -1.568886
O      0.677988   -2.815009    2.644745
O     -2.209548   -1.852000    1.493577
O      6.770877   -1.806481   -1.876684
O     -5.995512    0.016359   -2.137272
O     -6.941955   -2.105556   -0.731797
O      2.368430   -1.291700    2.205412
O     -3.610898   -0.969482    0.044715
H      0.236780    7.588554    0.678392
H      1.711730    7.268515   -0.437500
H     -4.455326    1.597591    1.465958
H     -4.436816    3.023134    2.496078
H     -5.490341    2.969108    0.992723
H     -5.069343    2.148695   -3.412548
H     -3.473760    3.022071   -3.130658
H     -5.066287    3.886274   -2.905405
H      5.839299   -1.295623    1.597749
H      4.503450   -1.675489    2.635433
H      5.496225   -0.304817    3.062740
H     -2.931705   -4.341300    2.440286
H     -4.680696   -4.149704    2.603360
H     -3.643337   -2.739315    2.904562
H     -0.224774    1.485997    2.141313
H     -0.288348    0.029756    1.123603
H      0.438214   -0.089388    2.747427
H      6.835978   -3.646254   -2.709378
H      6.156895   -2.376075   -3.792975
H      7.933606   -2.417928   -3.411694
H     -7.698293    0.345570   -3.277827
H     -7.965165    0.301419   -1.498214
H     -7.135476    1.701219   -2.308904
H     -8.635117   -2.548837   -1.702934
H     -7.192644   -2.264856   -2.748891
H     -7.357322   -3.821996   -1.826933
H      0.725518    5.241720   -1.183312
H      3.130217   -3.474839    1.868382
H      3.828151   -4.433833    0.565202
H      2.174189   -5.953150    0.743555
H      1.860891   -5.285151    2.333724
H     -1.901324    5.515645   -0.692100
H     -1.422203    6.247833    0.816221
H      3.216661   -2.220979   -0.253569
H      2.235898   -3.510877   -1.078053
H      7.577135    1.765822    0.323595
H      6.832438    0.771255    1.519549
H      8.869192   -0.099803    0.550106
H      7.583291   -1.253982    0.046334
H     -0.239919   -4.905672    1.725705
H      0.102242   -5.565440    0.123926
H     -2.617925    3.428018   -1.382677
H     -3.978938    4.523987   -0.962195
H     -2.311471    3.297073    2.444922
H     -3.762725    0.725694   -2.211796
H     -3.343048    0.899979   -0.478061
H      3.514476    1.285692   -0.110503
H     -5.761471   -4.164716    0.273140
H     -5.870176   -2.753846    1.346057
H      5.397721    1.049892   -2.464183
H      4.779625   -0.450862   -1.811799
H      1.734160    4.290613    0.748875
H      1.931868    3.008537   -0.471109
H     -5.524726    2.797576   -0.977840
H     -3.489950   -4.191659    0.261872
H      1.644578    0.719914    0.236194
H      5.645627    2.011288   -0.559437
H     -0.451276    4.438735    1.755743
H      0.940598   -1.513226   -0.215518
H      8.942092   -0.647939   -1.862184
H      2.952204    2.581717    1.760976
H      7.025300   -0.352146   -3.255572
H     -6.113747    0.908821   -0.352509
H     -5.083799   -2.638223   -1.556824
H      2.829955    0.483575    3.025483
H     -5.403716   -0.799814    0.898187
H      9.399994    1.475999   -1.398936
H      1.474451    3.623716    2.962264
H     -1.900931   -2.701474    1.892151
