27

C      3.719370   -0.762186   -0.215268
C      3.280210    0.457136    0.237607
C      2.828439   -1.799746   -0.383821
C      1.939385    0.622330    0.518456
C      1.482747   -1.639106   -0.103465
C     -0.386641   -0.247182    0.675051
C      1.037171   -0.423419    0.349130
C     -1.152878    0.333409   -0.466288
C     -1.095480   -0.514006   -1.667628
C     -2.941452    1.403499    0.931035
N     -2.075570    2.135135    1.535999
N     -2.550421    0.549611   -0.123802
O     -2.150379   -0.987086   -2.216280
O      0.091725   -0.853983   -2.284878
O     -4.264902    1.432517    1.292818
H      4.778465   -0.870153   -0.430250
H      3.985011    1.268065    0.367890
H      3.194982   -2.753744   -0.741641
H      1.633933    1.595597    0.872053
H      0.859922   -2.509968   -0.261874
H     -0.806024   -1.267964    0.926348
H     -0.534642    0.320693    1.624554
H     -0.757841    1.336611   -0.772281
H     -2.398749    2.749331    2.305140
H     -3.275443    0.055658   -0.678082
H      0.226272   -1.729074   -2.783943
H     -4.667211    2.098025    1.940575
