27

C     -0.799062    0.609613   -2.059740
C     -3.123309    0.273659   -0.317110
C     -1.675990   -0.292102    1.449502
C      2.316199    1.306484    0.918888
C      1.038940    1.199228    0.411453
C      3.203978    0.255890    0.869376
C      1.486135   -1.014800   -0.215586
C     -0.791339   -0.107627   -0.729368
C      0.580656    0.028325   -0.175342
C      2.765812   -0.916415    0.289460
N     -1.789715    0.435350    0.175290
O      3.664926   -1.978986    0.239555
H      0.120246    0.300187   -2.601262
H     -1.674973    0.402856   -2.674064
H     -0.658956    1.698220   -1.847786
H     -3.807947    0.232932    0.559335
H     -3.391562    1.166436   -0.907525
H     -3.273658   -0.665305   -0.887641
H     -0.675923   -0.135017    1.891775
H     -1.709842   -1.384109    1.172744
H     -2.476705   -0.040789    2.145106
H      2.639980    2.229821    1.367195
H      0.330316    2.025997    0.445713
H      4.218400    0.332108    1.268925
H      1.161475   -1.949174   -0.669495
H     -1.006737   -1.162079   -0.917582
H      3.328654   -2.850704   -0.196515
