27

C     -4.233338    0.031889   -0.099307
C     -3.289401    1.026540   -0.473625
C     -3.650483   -1.121406    0.319106
C     -1.945986    0.797344   -0.379486
C     -2.369556   -1.349477    0.416514
C     -0.013974   -0.670739    0.285722
C     -1.412226   -0.394228    0.078289
C      0.964362    0.482589    0.163531
C      1.178599    0.813498   -1.271450
C      3.317238   -0.281229    0.365670
N      3.203116   -1.165301   -0.568607
N      2.177128    0.282125    0.893663
O      0.698669    0.315510   -2.263683
O      2.121294    1.878095   -1.471938
O      4.606026    0.116989    0.784625
H     -5.260458    0.254646   -0.258303
H     -3.644948    1.988703   -0.791803
H     -4.423472   -1.895588    0.646845
H     -1.274863    1.590832   -0.655982
H     -2.030069   -2.343477    0.782033
H      0.264344   -1.324204   -0.687920
H      0.180663   -1.345337    1.086312
H      0.395133    1.344864    0.633512
H      4.116110   -1.604509   -0.950956
H      2.213345    0.577671    1.941997
H      2.748187    1.772722   -2.290573
H      5.364558    0.221480    0.093787
