26

C      0.687389   -0.140611   -0.146669
C      1.771905    0.578245   -0.863288
C     -0.658187    0.460993   -0.586233
C      3.135832    0.080009   -0.516770
C     -3.105894    0.236898   -0.213269
C     -4.088560   -0.535063    0.614095
C     -1.718065   -0.272277    0.139966
C      3.479587    0.234417    0.899639
O      2.683828    0.777065    1.691926
O      4.694447   -0.219509    1.384804
S     -3.901155   -2.242911   -0.054782
S     -1.780596   -2.019597   -0.445519
H      0.758332   -0.186717    0.936970
H      0.704888   -1.214308   -0.499090
H      1.671339    1.664537   -0.613277
H      1.561896    0.481366   -1.960322
H     -0.632222    1.520960   -0.315476
H     -0.711831    0.320340   -1.678198
H      3.887320    0.636706   -1.143656
H      3.222099   -0.987943   -0.820854
H     -3.161972    1.300250    0.096044
H     -3.290823    0.178151   -1.298605
H     -5.083581   -0.148843    0.456942
H     -3.726683   -0.538994    1.652405
H     -1.589429   -0.220686    1.217759
H      5.190138    0.257519    2.142898
