22

C     -1.645234   -1.665005    0.143479
C      2.990913    0.343564   -0.056704
C      2.143908    1.387468   -0.379427
C      2.495557   -0.938145    0.153333
C      0.794740    1.115056   -0.485640
C      1.129443   -1.158070    0.034002
C      0.259534   -0.139928   -0.286066
C     -1.884653    0.771341    0.281717
C     -1.210658   -0.333525   -0.423527
O     -1.763289    0.927042    1.515007
O     -2.670114    1.661144   -0.422166
O     -1.488739   -0.310141   -1.789085
H     -1.447322   -2.461547   -0.604851
H     -2.750035   -1.606977    0.281884
H     -1.145318   -1.882623    1.112056
H      4.046058    0.570745    0.023384
H      2.531493    2.405413   -0.546953
H      3.196584   -1.710160    0.401068
H      0.120926    1.921873   -0.737411
H      0.751052   -2.152285    0.197630
H     -2.761134    2.616076   -0.046251
H     -1.693712    0.638683   -2.043869
