60

C      0.999299   -2.848436   -0.973885
C      3.372960    4.252030   -0.289733
C      3.664614   -1.494020    0.474732
C      3.500812   -0.795805   -0.600127
C      3.561094   -2.903753    0.850146
C      3.604979    0.638819   -0.993301
C      2.517268   -3.699858    0.843802
C      3.130397    1.690156   -0.098550
C      0.397019   -2.539217    1.477156
C     -0.960562   -2.198084    0.933183
C      1.714515    3.051870   -1.580961
C     -0.326349    0.192502    0.812667
C     -1.777269    1.588596   -0.488489
C     -4.388071    0.507654   -1.335930
C      1.181920   -3.282317    0.434254
C      2.692893    2.965376   -0.694977
C     -1.374618   -0.778262    1.275237
C     -0.660172    0.600909   -0.613665
C     -4.196741    1.129484    0.032226
C      0.972175    1.897982   -2.062644
C     -6.098425   -0.039720    0.649369
C     -2.751318    0.931440    0.508124
N     -5.032774    0.546877    0.987519
O      0.844814    1.838120   -3.353819
O     -7.021962   -0.660794    1.492776
O     -2.681423    1.576326    1.742498
O      0.401121    0.891176   -1.396317
O     -2.545254   -0.441027    0.604063
S     -6.176986    0.089721   -1.135732
H      1.883331   -3.208467   -1.580454
H      0.875080   -1.787681   -1.162583
H      0.134459   -3.338307   -1.511757
H      4.118175    4.062091    0.504255
H      3.804832    4.668765   -1.216277
H      2.640115    4.969429    0.107913
H      4.024058   -1.014852    1.487614
H      3.212410   -1.237841   -1.645033
H      4.477829   -3.449465    1.250997
H      4.702467    0.861750   -1.234771
H      3.148727    0.833900   -2.002039
H      2.672422   -4.762431    1.164564
H      2.283883    1.323520    0.507695
H      3.916734    1.909053    0.702220
H      0.906035   -1.738132    1.994020
H      0.191203   -3.296215    2.305478
H     -1.776968   -2.852851    1.314335
H     -1.007162   -2.298568   -0.179229
H      1.476808    4.070045   -1.953743
H     -0.280753    1.015908    1.519167
H      0.676512   -0.312523    0.691594
H     -1.349042    2.511620   -0.019347
H     -2.283497    1.809354   -1.438497
H     -4.322349    1.220312   -2.156272
H     -3.788004   -0.408494   -1.456883
H      0.609391   -4.285171    0.434068
H     -1.510414   -0.733772    2.371013
H     -1.147162   -0.327056   -1.060735
H     -4.416864    2.225344   -0.007044
H     -7.173947   -0.223088    2.407878
H     -3.262263    1.086080    2.362231
