24

C      2.609302    0.354704    0.240824
C     -1.969097    1.157606    0.749243
C      1.226651    0.036340   -0.244199
C     -0.994526    0.550799   -0.233104
C      0.538972   -1.016234    0.601464
C     -0.862185   -0.934575   -0.022692
N      0.311304    1.128996   -0.161048
O      3.098653    1.396682   -0.550494
O     -3.189182    0.509564    0.574180
O      1.100603   -2.267160    0.420365
O     -1.825246   -1.471757    0.789965
H      3.277197   -0.511814    0.062464
H      2.586891    0.687446    1.287076
H     -2.076236    2.219595    0.520444
H     -1.636712    1.035725    1.799411
H      1.265169   -0.344419   -1.269219
H     -1.402527    0.748786   -1.247252
H      0.487309   -0.722106    1.676316
H     -0.766135   -1.484117   -1.001711
H      0.468725    1.787549    0.604830
H      3.088513    1.180282   -1.507669
H     -3.728264    0.903662   -0.155599
H      0.688940   -2.754684   -0.335838
H     -2.298120   -2.190870    0.260991
