40

C     -1.886920   -3.867520   -0.471353
C     -1.838375    1.843837    0.965379
C      3.599309   -1.160243   -0.135952
C     -1.701568   -2.378197   -0.463535
C     -2.147499    0.418394    0.520576
C      2.289977   -0.685293    0.499904
C     -0.855859   -0.412725    0.632938
C      1.332188   -0.422308   -0.632285
C      0.104354    0.284433   -0.268758
C     -0.223063    3.680508    0.738464
C     -0.641093    2.351500    0.230594
N     -1.111400   -1.762491    0.465406
O      4.550996   -1.472182    0.810285
O     -2.221633   -1.694157   -1.552116
O     -3.194471   -0.142891    1.189627
O      2.584664    0.438210    1.241448
O      1.118766   -1.615227   -1.293045
O      0.129776    3.818678    1.937368
O     -0.199371    4.814439   -0.061734
O     -0.984343    2.464433   -1.129835
O      0.437651    1.492291    0.403496
H     -2.880718   -4.119028   -0.898078
H     -1.906771   -4.271897    0.576836
H     -1.128232   -4.385993   -1.055531
H     -1.674443    1.843476    2.047768
H     -2.733894    2.450670    0.670056
H      4.031035   -0.344460   -0.781316
H      3.432684   -2.020382   -0.807015
H     -2.359254    0.495875   -0.562506
H      1.956687   -1.502678    1.160810
H     -0.563139   -0.259265    1.725781
H      1.897042    0.234132   -1.357558
H     -0.427790    0.623231   -1.176503
H      5.046551   -0.679635    1.158180
H     -1.652225   -1.105493   -2.150839
H     -4.014615   -0.119754    0.608980
H      2.659333    0.212398    2.219417
H      1.681601   -1.707540   -2.124108
H     -0.266778    5.750385    0.355091
H     -0.239160    2.912469   -1.621199
