60

C     -2.041413    2.355650    1.367343
C     -4.177912   -2.877859    0.574389
C     -4.281135    2.155099   -0.544144
C     -4.145535    0.871473   -0.622554
C     -3.625817    3.357070   -1.041826
C     -3.335548   -0.216299   -1.199586
C     -2.441539    3.801298   -0.690750
C     -2.671688   -0.941196   -0.047210
C     -0.555782    2.345117   -0.528064
C      0.615624    1.913173    0.324489
C     -1.968590   -3.201414   -0.467348
C      1.019474   -0.453062    1.080476
C      2.502649   -1.838387   -0.197995
C      5.148088    0.889785   -0.049399
C     -1.584864    3.169526    0.260207
C     -2.875006   -2.382323   -0.015195
C      1.159399    0.587387   -0.019665
C      1.107524   -1.818340    0.388479
C      4.398155   -0.349127    0.392146
C     -0.676909   -2.874429   -1.058966
C      6.429253   -1.449493    0.204464
C      3.137987   -0.539562   -0.485078
N      5.165988   -1.503867    0.236239
O     -0.410720   -3.625512   -2.098140
O      7.346949   -2.504796    0.056434
O      3.727863   -0.692798   -1.777143
O      0.186483   -1.927129   -0.638633
O      2.401630    0.590838   -0.567452
S      6.839800    0.290511    0.389201
H     -1.597785    2.770379    2.329825
H     -1.691004    1.305215    1.395104
H     -3.136619    2.469686    1.563408
H     -4.873856   -3.032304   -0.276432
H     -4.582201   -2.153879    1.293980
H     -4.026418   -3.894329    1.024050
H     -5.210069    2.586167    0.050283
H     -4.913069    0.209129   -0.032075
H     -4.191374    4.006291   -1.798797
H     -2.581732   -0.032458   -1.945241
H     -4.005867   -0.982706   -1.740746
H     -2.093629    4.742093   -1.196563
H     -1.608821   -0.684650   -0.099322
H     -3.136300   -0.542522    0.904145
H     -0.165299    2.969889   -1.331216
H     -0.984198    1.447165   -0.967215
H      0.367108    2.022673    1.422981
H      1.403667    2.677660    0.168115
H     -2.225480   -4.278240   -0.385425
H      1.763596   -0.400375    1.863778
H      0.024472   -0.367420    1.520995
H      3.182186   -2.420721    0.494642
H      2.429507   -2.529792   -1.091423
H      5.081701    1.083147   -1.125617
H      4.937209    1.760509    0.582230
H     -0.902449    3.980272    0.725755
H      0.485674    0.170248   -0.841744
H      1.054928   -2.564606    1.190052
H      4.099237   -0.142057    1.440311
H      6.990697   -3.431731    0.298808
H      3.711780    0.125935   -2.293428
