24

C      2.477652   -0.660157   -0.032383
C     -2.378340   -1.046481    0.140526
C      1.104545   -0.331082   -0.526847
C     -1.100663   -0.607172   -0.517875
C      0.636690    1.047989   -0.206515
C     -0.876440    0.882232   -0.420772
N      0.077290   -1.122308    0.171478
O      3.384023    0.122226   -0.735900
O     -3.434420   -0.512979   -0.577718
O      1.120032    2.035501   -1.021180
O     -1.595878    1.480113    0.582364
H      2.585184   -0.581776    1.053782
H      2.686610   -1.714681   -0.305122
H     -2.412188   -0.809198    1.212479
H     -2.424173   -2.163333    0.014109
H      1.013056   -0.554311   -1.587868
H     -1.017691   -0.945654   -1.563893
H      0.798429    1.268009    0.880172
H     -1.123234    1.351155   -1.402599
H      0.217457   -2.130321    0.043353
H      3.998607    0.593266   -0.146558
H     -4.109199   -0.063056   -0.040149
H      2.081344    2.017766   -1.145131
H     -1.708694    2.444252    0.341199
