30

C     -2.601359    1.108541    0.580177
C     -2.678828   -0.359534    0.992001
C     -1.922221    1.162569   -0.757085
C     -1.300736   -0.734576    1.473012
C     -0.926972    0.018899   -0.872681
C      0.906928   -1.061245    0.373586
C      2.400920    0.863769   -0.168672
C     -0.291495   -0.180387    0.476148
C      1.925392   -0.532272   -0.593654
N      3.082708   -1.375373   -0.623587
O      3.330506    1.287434   -1.125793
H     -3.601161    1.563517    0.594014
H     -1.978339    1.656057    1.337385
H     -3.000087   -0.961043    0.136364
H     -3.433335   -0.493648    1.797040
H     -1.409654    2.141472   -0.887914
H     -2.680244    1.043902   -1.565887
H     -1.203409   -1.834872    1.580140
H     -1.155218   -0.269101    2.474991
H     -0.182859    0.318712   -1.618398
H     -1.475274   -0.903021   -1.203622
H      0.607206   -2.077201   -0.027295
H      1.350344   -1.299213    1.365383
H      1.561333    1.587670   -0.204375
H      2.912027    0.841261    0.801627
H     -0.020301    0.832866    0.850394
H      1.582374   -0.447437   -1.632948
H      3.308365   -1.807956   -1.510432
H      3.854383   -1.102957   -0.009523
H      3.039007    1.013166   -2.030393
