15

C      1.930361   -0.171087   -0.135039
C     -1.853384   -0.143257    0.206057
C      0.496476   -0.520606   -0.461858
C     -0.406816    0.197477    0.520734
O     -0.246025    1.564995    0.352365
H      2.440703    0.325363   -0.993154
H      2.016863    0.527484    0.724818
H      2.525356   -1.079572    0.130067
H     -2.045388   -1.208386    0.448180
H     -2.499158    0.499375    0.831156
H     -2.009644    0.045609   -0.875516
H      0.350928   -1.603290   -0.379354
H      0.291743   -0.200837   -1.481425
H     -0.206591   -0.080744    1.558322
H     -0.785426    1.847474   -0.445353
