40

C      2.734766    3.512165   -0.275109
C      1.573233   -2.290926    0.289333
C     -3.495537    1.593711   -0.142117
C      2.192639    2.154250   -0.615937
C      2.080770   -0.969230    0.777120
C     -2.433473    0.712742    0.477878
C      1.274863    0.065680   -0.030737
C     -1.098999    0.872663   -0.206930
C     -0.144899   -0.110676    0.447649
C     -0.371226   -3.444765   -0.537173
C      0.102407   -2.433782    0.455966
N      1.784888    1.344076    0.288669
O     -3.704672    1.317329   -1.470881
O      2.114914    1.728256   -1.939629
O      3.426354   -0.813222    0.600748
O     -2.266512    1.038014    1.818178
O     -1.285557    0.542696   -1.548617
O     -0.294587   -3.178814   -1.778576
O     -0.897263   -4.673744   -0.186862
O     -0.114693   -3.022890    1.724842
O     -0.660354   -1.341399    0.358861
H      3.344713    3.855316   -1.115918
H      3.388842    3.470583    0.614125
H      1.911620    4.248093   -0.136671
H      1.799975   -2.338299   -0.815124
H      2.103054   -3.152263    0.737946
H     -4.447343    1.373933    0.404484
H     -3.267166    2.656852    0.074926
H      1.745309   -0.828139    1.830567
H     -2.709586   -0.356406    0.440109
H      1.305126   -0.240702   -1.082701
H     -0.705778    1.906251   -0.129565
H     -0.129146    0.189848    1.537883
H     -4.324079    1.988158   -1.829603
H      1.223186    1.358220   -2.306722
H      3.748875   -0.142590    1.275667
H     -3.041686    1.576832    2.098523
H     -1.682127   -0.383252   -1.583391
H     -1.038012   -5.382233   -0.918227
H      0.257161   -2.402337    2.397014
