35

C      3.802944    0.194353    1.361432
C     -2.795388    3.142026    0.895337
C     -2.195795    3.209706   -0.356306
C      2.466146   -0.397814   -2.115052
C      3.310542   -0.191851   -1.059565
C      1.109837   -0.443822   -1.869331
C     -2.735229    1.974253    1.594811
C     -1.541007    2.090428   -0.883000
C     -0.777473   -2.587522    0.347635
C     -1.386778   -2.957159   -0.993077
C      1.492055   -0.081196    0.446172
C      2.848253   -0.030341    0.232793
C      0.609923   -0.287176   -0.595051
C     -2.088993    0.876839    1.068474
C     -1.486065    0.927362   -0.173612
C     -1.940823   -0.472749    1.601638
C     -0.860187   -0.346190   -0.421709
N     -1.237759   -1.253364    0.655383
O     -2.372505   -0.879700    2.730226
S     -1.583791   -1.307965   -1.802654
H      4.838481    0.100070    0.974695
H      3.677553    1.234069    1.782096
H      3.684245   -0.548101    2.173029
H     -3.285793    4.029315    1.257394
H     -2.244092    4.122762   -0.902136
H      2.900219   -0.516702   -3.104757
H      4.373497   -0.149839   -1.212173
H      0.439344   -0.609472   -2.721075
H     -3.190377    1.906020    2.557174
H     -1.080410    2.163741   -1.859297
H      0.315023   -2.697993    0.362569
H     -1.197535   -3.294467    1.088118
H     -2.347981   -3.460125   -0.923896
H     -0.618465   -3.498306   -1.581857
H      1.098384    0.040911    1.445571
