22

C      2.974855    0.629561    0.511027
C      2.539215   -0.613962    0.910750
C      2.167534    1.339292   -0.355014
C      1.341908   -1.135109    0.465366
C      0.968562    0.821488   -0.803278
C     -0.736155   -1.041366   -0.845999
C      0.522115   -0.432733   -0.404184
C     -1.917142   -0.752254    0.058625
C     -2.212967    0.687588    0.185478
O     -3.051366   -1.391198   -0.454772
O     -3.318738    1.140514   -0.167056
O     -1.299759    1.606751    0.694176
H      3.922892    1.024545    0.873178
H      3.150729   -1.186692    1.585389
H      2.505782    2.314060   -0.670311
H      1.004369   -2.126690    0.790065
H      0.327863    1.375203   -1.489693
H     -1.004830   -0.568131   -1.836932
H     -0.635114   -2.112507   -1.059018
H     -1.724137   -1.135951    1.089259
H     -3.849634   -0.815263   -0.320792
H     -1.675982    2.372855    1.243737
