79

C     -3.945315    3.584689    2.430001
C      0.544028    2.458935   -3.861396
C      1.563745   -2.520444   -1.026217
C      1.560209   -2.629326    1.385923
C     -4.417562    2.979840   -0.128099
C     -1.656513   -1.831234   -1.801820
C     -2.650141    1.138112   -1.715642
C      7.297403    1.181511    1.742049
C      6.485691    1.656941   -0.400188
C     -3.995518    2.309545    2.124552
C     -1.317821   -3.820881    0.882339
C      4.114582    0.262862    0.067586
C     -0.054443   -3.917971    0.106054
C      5.021441    0.738329    1.179237
C     -4.631798    0.645490    0.518059
C      0.295566    2.341126   -2.409741
C     -2.311982   -2.907067    0.247827
C     -3.878839   -0.517892   -0.085238
C      2.733133    0.269206    0.543421
C      0.292840   -0.108730    0.222453
C     -0.304415   -1.470214    0.328528
C     -0.471282    0.929087   -0.504008
C      0.672267   -2.600721    0.158758
C     -3.787167    1.860451    0.722951
C     -1.643723   -1.656428   -0.349215
C     -1.971658    0.848055   -0.367309
C     -2.438970   -0.487460    0.162670
N      6.394207    0.730475    0.701563
O      0.518639    3.291479   -1.638960
O     -3.244352   -2.581375    1.231137
O     -4.516053   -1.335921   -0.695289
O      2.478004    0.635661    1.721126
O     -2.237806   -0.446883    1.549834
O     -0.176041    1.243113   -1.801674
O      1.639134   -0.108120   -0.221146
O     -2.476046    1.784803    0.507935
H     -3.750683    4.370533    1.681138
H     -4.097931    3.919780    3.459472
H      1.619639    2.674304   -4.026486
H     -0.084202    3.238354   -4.346434
H      0.362517    1.448619   -4.308886
H      1.321645   -1.789973   -1.792532
H      2.643447   -2.324631   -0.750671
H      1.626012   -3.513807   -1.562739
H      1.402288   -3.575025    1.910434
H      2.641189   -2.565778    1.123719
H      1.260759   -1.798492    2.059099
H     -4.895890    2.574915   -1.037712
H     -5.272613    3.451689    0.443348
H     -3.710960    3.801109   -0.303992
H     -1.644191   -2.899793   -2.132772
H     -2.661811   -1.469766   -2.180812
H     -0.923144   -1.311948   -2.408830
H     -3.631967    0.688548   -1.802883
H     -2.647722    2.263431   -1.800602
H     -2.029410    0.805951   -2.566521
H      6.777888    1.789008    2.508639
H      8.130269    1.730479    1.266346
H      7.677309    0.273760    2.262065
H      6.298677    1.158410   -1.390555
H      5.832819    2.541814   -0.279485
H      7.566990    1.972603   -0.458456
H     -4.186421    1.580918    2.879972
H     -1.115457   -3.589673    1.946236
H     -1.777729   -4.853196    0.897196
H      4.202776    1.007736   -0.750470
H      4.384663   -0.756957   -0.254266
H     -0.190256   -4.326276   -0.899240
H      0.573426   -4.698480    0.637665
H      4.925581    0.068958    2.070785
H      4.744163    1.756515    1.481514
H     -5.028670    0.232798    1.492148
H     -5.537565    0.850212   -0.087704
H     -2.865145   -3.481920   -0.522975
H      0.413025    0.246037    1.283394
H     -0.647404   -1.649867    1.410498
H     -0.195208    1.914416   -0.017463
H     -3.943870   -3.283177    1.265471
H     -3.050278   -0.421180    2.075287
