58

C      9.519882   -1.305075   -0.136057
C     -2.141930   -2.358364    1.568187
C     -5.763342   -1.176393    0.052491
C     -6.164770    1.131966   -0.409107
C     -6.914103   -1.241225    0.836205
C     -7.310963    1.056562    0.375276
C      5.875869   -0.004137    0.912723
C      4.554159   -0.123878    0.467619
C      0.165640    0.867165   -0.798006
C      1.346748    1.823722   -0.518439
C      8.117017    0.549875   -0.274171
C     -3.466302    1.357937   -1.278777
C      3.442708    0.132823   -1.864392
C     -5.407170    0.002420   -0.552557
C     -7.674623   -0.111366    0.983348
C      6.618463    0.316219   -0.173820
C      4.559291    0.131964   -0.879632
C     -4.157829    0.027040   -1.392933
C     -1.884164    0.946968    0.681594
N      8.710960   -0.408996    0.623954
N     -0.879360    0.870674    0.046868
N     -3.037536    1.574554    0.066470
N     -1.948463    0.438715    2.029792
O     -8.832597   -0.149663    1.761701
O     -4.548939   -0.221582   -2.739300
O     -1.594902   -1.297530    3.953348
O      0.193338   -1.129603    2.209719
O      5.798141    0.385837   -1.188972
S      2.520559    1.648018   -1.908707
S     -1.294697   -1.078724    2.473532
H     10.159708   -1.896414    0.506264
H      8.818932   -2.000386   -0.740595
H     10.102973   -0.757155   -0.897098
H     -2.716798   -3.016278    2.248925
H     -2.923612   -1.934491    0.876212
H     -1.445681   -2.944103    0.924451
H     -5.191874   -2.074754   -0.042824
H     -5.852528    2.043261   -0.916162
H     -7.171029   -2.179180    1.288835
H     -7.882779    1.997246    0.474118
H      6.196274   -0.138380    1.922899
H      3.703239   -0.381940    1.082553
H     -0.089053    1.153312   -1.892585
H      0.664075   -0.153364   -0.982653
H      1.045690    2.871028   -0.519150
H      1.814075    1.562982    0.456363
H      8.305999    1.565738    0.065744
H      8.455309    0.381271   -1.290432
H     -4.048593    2.198341   -1.645768
H     -2.586933    1.278364   -1.975497
H      2.818102   -0.773208   -1.662937
H      3.893115   -0.104676   -2.878894
H     -3.508827   -0.773085   -1.064320
H      8.077626   -0.773479    1.304205
H     -3.571841    2.219142    0.731196
H     -2.419609    1.042418    2.741674
H     -8.858315    0.038203    2.747214
H     -4.188725   -1.106335   -3.050580
