60

C     -2.800611   -0.859932    1.963705
C      1.837401    0.352311    1.806059
C     -0.549396    4.885311   -0.260205
C     -3.983087   -3.182453    0.632043
C      1.369155    1.780776   -0.750107
C      5.264443   -0.328522   -0.930402
C     -2.490538   -2.841906    0.583104
C      2.715188    1.265938   -1.316821
C      3.871038   -0.907166   -0.832764
C     -4.089489   -1.342042   -1.082511
C     -2.609743    0.558270   -1.047062
C      1.542401   -1.624194    0.431351
C     -3.066104   -0.743847   -0.522051
C     -4.582120   -2.627738   -0.606149
C     -1.683599    1.250900   -0.039252
C      0.717258    0.502445   -0.444846
C      0.099763   -1.993267    0.499713
C      5.223326    0.885266   -0.078009
C     -0.520492    0.437087    0.332805
C     -1.457415    2.615854   -0.496904
C     -2.327781   -1.311953    0.626313
C      1.809624   -0.167994    0.406873
C      3.081192    0.227078   -0.280647
C     -0.879290   -1.052770    0.378682
O     -5.484904   -3.229929   -1.238172
O      6.131872    1.765582   -0.013908
O     -1.910576    3.034897   -1.617544
O     -0.745936    3.565639    0.223817
O     -0.494156   -1.786440   -0.847726
O      4.016869    0.840058    0.603560
H     -3.062794   -1.727332    2.641495
H     -2.026612   -0.305824    2.558704
H     -3.745223   -0.305417    1.852172
H      1.263697   -0.338240    2.461487
H      2.905207    0.257388    2.164589
H      1.571827    1.400306    1.934144
H     -1.569797    5.318771   -0.402688
H      0.035660    4.902390   -1.200505
H     -0.016178    5.456454    0.510062
H     -4.433959   -2.767275    1.547775
H     -4.033067   -4.289733    0.664353
H      1.690469    2.360165    0.143559
H      0.950464    2.377971   -1.565276
H      6.030885   -1.052871   -0.585791
H      5.532876   -0.079471   -1.985327
H     -2.059276   -3.263461   -0.344293
H     -2.026426   -3.327091    1.439531
H      2.461859    0.787059   -2.286154
H      3.443828    2.078518   -1.400420
H      3.917663   -1.699829   -0.050810
H      3.495702   -1.281085   -1.790773
H     -4.628483   -0.907842   -1.938011
H     -2.167651    0.507959   -2.041862
H     -3.513279    1.211904   -1.112700
H      2.060417   -2.050119    1.340217
H      1.975468   -2.168067   -0.458115
H     -2.338095    1.362482    0.879933
H      0.626393   -0.097237   -1.373254
H     -0.086436   -3.002041    0.905993
H     -0.259436    0.674313    1.409022
