62

C      1.648137    4.923462    0.300254
C      2.846559    4.002708    0.217123
C      6.713973   -2.740372    0.654009
C      5.740119   -2.975007    1.584027
C      6.692059   -1.622179   -0.170999
C     -6.650823    1.487585    1.739306
C      4.694679   -2.070643    1.711885
C      5.655688   -0.708638   -0.057142
C     -5.322972    1.439304    1.532609
C      3.543359   -0.002399    1.044876
C      2.406121   -0.405315    0.134199
C     -7.410768    0.497883    1.163279
C     -3.238211    0.258145   -1.058466
C     -3.090788   -1.436518   -2.840271
C     -0.991309   -1.296749    1.222409
C      4.694074   -0.969539    0.883176
C      1.227056    0.505540    0.299996
C     -0.376371   -1.209821   -0.165991
C     -4.769415    0.479636    0.805164
C     -3.374189    0.188630    0.426129
C     -4.104803   -2.476260   -2.604316
C     -1.428656   -1.612093   -1.156414
C      1.610534    1.894371   -0.032621
N      0.136526    0.055746   -0.521379
N     -2.545408   -0.885608   -1.581339
O     -4.622632   -3.004332   -3.620316
O     -4.537942   -2.923414   -1.369143
O     -1.280942   -2.747663   -1.664147
O      1.007390    2.449840   -1.024088
O      2.536843    2.683749    0.588354
S     -6.191322   -0.516075    0.311618
S     -2.827159   -1.395525    1.044431
Cl     0.683675    0.000000    0.000000
H      1.052251    4.688701    1.181445
H      2.066925    5.960012    0.449500
H      1.079422    4.973087   -0.646605
H      3.592943    4.381153    0.955799
H      3.340076    4.067607   -0.770354
H      7.543805   -3.442923    0.540786
H      5.721007   -3.826814    2.240023
H      7.455595   -1.425175   -0.909827
H     -7.205310    2.263274    2.341336
H      3.914915   -2.235197    2.439036
H      5.592124    0.176883   -0.674737
H     -4.672362    2.240973    1.994094
H      3.907238    1.003123    0.729347
H      3.191011   -0.014915    2.086215
H      2.174397   -1.487352    0.249083
H      2.753244   -0.320663   -0.935848
H     -8.491295    0.313169    1.178581
H     -4.281750    0.217062   -1.493475
H     -2.780976    1.221333   -1.388419
H     -2.265934   -1.861169   -3.415583
H     -3.536575   -0.547236   -3.370938
H     -0.806512   -0.433243    1.850166
H     -0.663411   -2.208712    1.753630
H      0.916094    0.410137    1.366103
H      0.384993   -1.995763   -0.220036
H     -2.739655    0.982555    0.924557
H     -0.526072    0.787522   -0.783463
H     -5.105593   -3.755876   -1.228836
H     -0.683675    0.000000    0.000000
