34

C     -1.498864   -2.554164   -0.979959
C      4.079741    1.807533   -0.477937
C      2.759462    2.049638   -0.711985
C      4.493521    0.618531    0.014782
C     -3.447939    0.817678    1.180850
C     -1.214777   -1.830051    0.319725
C      1.859202    1.067433   -0.439336
C      3.596370   -0.418193    0.308307
C     -2.888088   -0.226859    0.239027
C     -3.405035    2.049752    0.370081
C     -0.164981   -0.810337    0.049125
C      2.253386   -0.163271    0.066974
C     -0.564885    0.347015   -0.430169
C      0.465010    1.338276   -0.692207
C      1.228928   -1.138406    0.323523
C     -1.996774    0.558617   -0.664782
O      4.062591   -1.598957    0.803597
O     -4.184411    3.036700    0.376253
O      0.089596    2.453930   -1.153146
O      1.503635   -2.269996    0.779565
O     -2.313175   -1.268073    0.888872
O     -2.293042    1.927070   -0.448566
H     -1.344072   -1.856096   -1.852000
H     -2.517524   -2.961250   -1.026527
H     -0.724144   -3.340082   -1.107421
H      4.799244    2.590421   -0.695049
H      2.422397    3.015446   -1.112317
H      5.534941    0.423706    0.200853
H     -4.487072    0.610935    1.481034
H     -2.811005    0.969597    2.077045
H     -0.805422   -2.592039    1.018640
H     -3.765313   -0.628543   -0.347824
H     -2.286547    0.359876   -1.738042
H      3.565049   -2.385836    1.046226
