50

C     -1.096667    4.231719   -1.012722
C      4.593743    1.786562    2.567235
C      4.021337    0.045635   -2.488806
C     -3.260250   -4.554055   -0.526081
C     -2.229026   -3.738997   -0.926779
C      0.731335    0.548031    1.555506
C      2.023522    0.944100    1.860906
C     -2.087023   -1.261818    1.848623
C     -1.926697   -0.098756    0.875824
C     -1.191811    0.549585   -1.364521
C     -3.903645   -4.278577    0.664434
C     -1.099867    1.937700   -0.827225
C      1.474860   -0.001278   -0.671570
C     -0.764597   -1.801703   -0.533250
C     -1.870968   -2.672615   -0.125144
C      0.479813    0.077993    0.278331
C     -2.535441   -2.442996    1.040074
C      3.043229    0.889761    0.968594
C      2.777053    0.410396   -0.322693
C     -0.885334   -0.367135   -0.160340
N     -1.298314    2.995785   -1.795695
N     -3.534773   -3.230429    1.432034
O      4.355387    1.297643    1.276808
O      3.750481    0.345995   -1.211413
H     -1.824473    4.189852   -0.170605
H     -1.131932    5.119941   -1.617877
H     -0.100868    4.054247   -0.521628
H      5.672943    1.975338    2.713155
H      4.147339    1.095853    3.304566
H      4.101785    2.806052    2.603838
H      5.122896    0.201690   -2.714726
H      3.823721   -1.040541   -2.716020
H      3.435182    0.607230   -3.246998
H     -3.563575   -5.406343   -1.147365
H     -1.694346   -3.925785   -1.867283
H     -0.069740    0.588178    2.255621
H      2.181610    1.312972    2.868051
H     -1.205169   -1.485087    2.440996
H     -2.912467   -0.975159    2.532832
H     -1.841638    0.828936    1.422552
H     -2.928162   -0.048428    0.350101
H     -0.449987    0.388706   -2.145639
H     -2.229495    0.309480   -1.719987
H     -4.716773   -4.915255    0.984100
H     -1.893265    2.133156   -0.043036
H     -0.098992    2.064570   -0.381669
H      1.334155   -0.368036   -1.686446
H      0.167720   -2.264439   -0.078716
H     -0.620107   -1.840099   -1.651554
H     -2.272711    2.980428   -2.168394
