67

C     -5.521227    3.033790    0.921898
C     -0.515618    3.101535    1.153549
C     -7.837780    0.538485   -0.764449
C      8.415632   -2.089671   -0.985721
C      7.387613   -2.997182   -1.078020
C      8.183283   -0.836193   -0.447051
C     -2.835388   -2.224804    1.881307
C      6.133089   -2.647798   -0.631836
C      6.917282   -0.517426   -0.009618
C     -2.865885   -0.934559    1.345024
C     -2.770971   -3.298860    1.009010
C      3.025448    1.737988   -0.975911
C      4.382792    1.056543   -0.734758
C     -2.767543   -1.866729   -0.849977
C      4.485382   -1.072153    0.390066
C      2.931685    0.547579    1.026761
C     -4.217507    2.390269    0.543960
C     -1.773414    2.422333    0.656693
C      5.857867   -1.394263   -0.082335
C     -2.831279   -0.774602   -0.019173
C     -2.735228   -3.164442   -0.361739
C      2.122283    0.815451   -0.225289
C     -4.134307    1.286978   -0.173422
C     -1.677373    1.325376   -0.056563
C     -2.867112    0.634124   -0.559052
C     -5.402500    0.665267   -0.614830
C     -0.331674    0.757011   -0.370159
N     -3.018353    3.008770    0.993036
N      4.256306    0.353822    0.499390
N     -2.668889   -4.275868   -1.235563
O     -5.375983   -0.405738   -1.313661
O     -0.247283   -0.297817   -1.055827
O     -2.634928   -4.047050   -2.585638
O     -2.642783   -5.433370   -0.785691
O     -6.646085    1.162784   -0.324164
O      0.846220    1.318866    0.047677
Cl     0.687713    0.000000    0.000000
H     -6.123913    2.370805    1.545487
H     -5.282825    3.972698    1.508323
H     -6.055704    3.341278    0.001930
H      0.010046    2.432456    1.864490
H     -0.856255    3.963942    1.791200
H      0.085717    3.458770    0.312876
H     -8.445596    1.323860   -1.275087
H     -8.410625    0.251591    0.152834
H     -7.606359   -0.305701   -1.419829
H      9.428714   -2.290447   -1.314875
H      7.581464   -3.980428   -1.503383
H      8.989876   -0.092800   -0.361500
H     -2.863108   -2.348000    2.960074
H      5.296496   -3.335149   -0.687097
H      6.763320    0.463758    0.408795
H     -2.915894   -0.065886    1.978114
H     -2.746132   -4.312042    1.397467
H      2.809054    1.816714   -2.043802
H      3.114029    2.717225   -0.451357
H      4.469262    0.303698   -1.566894
H      5.197494    1.774695   -0.812010
H     -2.740408   -1.725614   -1.935346
H      4.379666   -1.555010    1.384495
H      3.709658   -1.518999   -0.276823
H      2.558369   -0.326425    1.597806
H      2.884960    1.497829    1.631286
H      2.033744   -0.122913   -0.842280
H     -2.822390    0.510230   -1.681913
H     -3.068431    3.901421    1.573490
H     -0.687713    0.000000    0.000000
