50

C     -0.881899    4.713031    1.404025
C      4.664777    1.858809   -2.123984
C      3.414534   -2.614367    0.649151
C     -1.194623   -4.535675   -0.783299
C     -0.901662   -3.550612    0.130411
C      0.521341    1.430793   -0.736820
C      1.809266    1.583833   -1.183105
C     -3.195186   -0.781599   -0.714129
C     -2.050120    0.204486   -0.765333
C     -1.613922    1.047754    1.561223
C     -2.180545   -4.264073   -1.707017
C     -1.653562    2.474182    1.528592
C      1.192290   -0.642281    0.224320
C     -1.331456   -1.253691    1.073842
C     -1.572533   -2.347895    0.114597
C      0.201891    0.287126   -0.010751
C     -2.565964   -2.111115   -0.836026
C      2.814994    0.667942   -0.958373
C      2.506806   -0.476699   -0.239250
C     -1.210341    0.132694    0.479651
N     -0.513772    3.286654    1.351344
N     -2.842057   -3.058559   -1.710570
O      4.097693    0.820010   -1.400716
O      3.504788   -1.387890   -0.028197
H     -0.124048    5.234837    0.770051
H     -0.865000    5.077816    2.457131
H     -1.880536    4.820244    0.968481
H      4.076962    2.795799   -1.985324
H      4.641538    1.615244   -3.204596
H      5.725545    2.003945   -1.825271
H      4.045485   -3.400856    0.123996
H      2.378522   -3.053928    0.600962
H      3.778271   -2.610557    1.679548
H     -0.681696   -5.510130   -0.803522
H     -0.132423   -3.730940    0.868730
H     -0.257953    2.154086   -0.960826
H      2.026444    2.489034   -1.741369
H     -3.945203   -0.574871   -1.497384
H     -3.705351   -0.755820    0.289534
H     -1.395677   -0.152183   -1.615654
H     -2.342771    1.223329   -1.055981
H     -1.072433    0.671417    2.495122
H     -2.685128    0.710029    1.829387
H     -2.405862   -5.034613   -2.414387
H     -2.134740    2.842113    2.495040
H     -2.427350    2.856119    0.771156
H      1.026479   -1.537981    0.761186
H     -2.293848   -1.282917    1.724276
H     -0.562902   -1.489566    1.837999
H      0.192941    3.157489    2.112130
