60

C     -3.460576    0.575021    2.900181
C     -1.921587   -4.465691   -0.232804
C      4.903073   -0.918070   -0.723692
C      3.586665   -2.854293   -0.328260
C      6.060535   -1.680273   -0.636657
C      4.735777   -3.602260   -0.243314
C     -1.543266   -1.440272   -1.533837
C      2.457069   -0.682322   -0.665200
C     -1.118642   -0.228468   -1.340249
C      2.122495   -0.161757    0.711756
C     -3.053843   -1.333598    0.378439
C     -0.161684    4.069400   -0.287439
C     -2.422186    2.651279   -0.837234
C     -2.893379    6.240843   -1.379688
C      3.670149   -1.508026   -0.569142
C      5.968932   -3.016764   -0.397068
C     -2.313819   -2.193362   -0.561645
C     -0.163154    2.684161   -0.038467
C     -1.301601    1.986808   -0.317945
C     -1.243593    4.747162   -0.794700
C     -2.377299    4.007718   -1.065448
C     -2.650501    0.078304    0.533940
C     -0.342904    0.071843    0.928360
C      1.057893    2.065980    0.502644
C     -0.995833    0.531161    2.180599
C     -1.374756    0.526256   -0.097078
N     -2.385809    0.413410    1.955931
N      0.943741    0.657913    0.712704
O      7.131015   -3.787756   -0.308475
O      2.069657    2.726856    0.742147
O     -0.448899    0.946452    3.242444
O     -1.549294   -3.185464    0.055907
O     -1.520680    6.062723   -1.130089
O     -3.337736    4.907026   -1.569430
H     -3.074388    0.507312    3.936726
H     -4.029834    1.512169    2.711307
H     -4.206490   -0.249118    2.696150
H     -2.959770   -4.721066    0.054546
H     -1.807405   -4.756425   -1.288128
H     -1.266637   -5.143987    0.352046
H      4.983440    0.157740   -0.916951
H      2.617234   -3.318503   -0.207269
H      7.038961   -1.207242   -0.760055
H      4.641058   -4.654755   -0.053786
H     -1.288562   -1.902765   -2.506791
H      2.692221    0.203157   -1.312038
H      1.598335   -1.219143   -1.114031
H     -0.529970    0.290798   -2.135069
H      2.031165   -0.993769    1.430647
H      2.981731    0.490776    1.033702
H     -4.161247   -1.397061    0.124979
H     -3.049645   -1.785942    1.426062
H      0.771913    4.592208   -0.049554
H     -3.333351    2.132267   -1.081214
H     -3.108950    6.885547   -2.253506
H     -3.426616    6.680248   -0.496177
H     -3.069010   -2.799540   -1.160549
H     -3.499023    0.705873    0.198838
H     -0.234011   -1.003504    0.993945
H      7.562893   -3.897216    0.588981
