37

C     -2.036636    1.097667   -2.168804
C     -0.859133    1.153361   -1.566296
C     -0.947438    1.529627    0.892416
C     -1.151062    0.532379    2.025589
C      2.183518   -1.494244    1.009990
C     -3.018433   -0.027904   -0.159127
C      1.864299    0.612763   -0.647340
C     -0.261325   -1.651479    1.522148
C      5.380843   -0.220768   -0.168924
C      0.902130   -1.009214    0.817441
C     -3.229350    0.458921   -1.559888
C      0.757637    0.065738   -0.031056
C      3.289999   -0.948123    0.394372
C      3.149294    0.127354   -0.455037
C     -1.600944   -0.527405    0.003340
C     -0.606990    0.597504   -0.248469
N     -1.380534   -0.747630    1.438318
O     -3.620780   -0.658198   -2.331053
O      4.639575   -1.272809    0.446305
O      4.410738    0.490807   -0.946859
H     -2.179441    1.539237   -3.179985
H     -0.071023    1.656432   -2.137146
H     -1.827849    2.142482    0.694554
H     -0.108018    2.233035    1.113259
H     -0.210415    0.531884    2.641935
H     -2.021610    0.900610    2.602395
H      2.283934   -2.343827    1.682698
H     -3.287975    0.721572    0.601227
H     -3.675152   -0.920225    0.060453
H      1.773530    1.466430   -1.323301
H     -0.495753   -2.564290    0.969087
H      0.014959   -1.906691    2.569711
H      6.129904   -0.703084   -0.815038
H      5.802745    0.402149    0.632613
H     -4.108594    1.139675   -1.574135
H     -1.426494   -1.412372   -0.598797
H     -4.458160   -0.991362   -1.880489
