61

C     -3.285487   -2.413694    1.122010
C      3.497024    1.509857   -1.641234
C     -3.495378    0.427852    1.942560
C      2.173907   -1.446305   -1.855950
C     -1.027041    2.702529   -1.667430
C      3.041208    2.705232    0.847593
C     -0.956114   -2.966136    0.712682
C      0.479620   -4.204731   -0.914087
C     -2.064485   -1.925848    0.456066
C      2.296866    1.089186   -0.810027
C     -2.263600    0.569717    1.074286
C      2.398561   -1.387883   -0.364362
C     -1.536220    2.613798   -0.242734
C      1.856010    2.319459   -0.051883
C     -1.484300   -0.633979    0.808748
C      2.623504   -0.012466    0.148064
C     -2.497675    1.474945   -0.115930
C      1.396656   -2.190530    0.387914
C     -0.487983    2.708606    0.770468
C      0.203826   -2.862516   -0.209589
O     -0.670443   -0.320508   -0.319508
O      1.889976    0.186457    1.312544
O     -3.835612    1.892543   -0.031583
O      1.509672   -2.347904    1.604640
O     -0.786164    3.381094    1.833481
O      0.129771   -3.054442   -1.550950
O      0.759800    2.187598    0.752731
H     -4.183814   -2.212166    0.470055
H     -3.430600   -2.174616    2.167494
H     -3.251812   -3.549372    1.100313
H      4.395939    0.880710   -1.379413
H      3.817245    2.554289   -1.440907
H      3.287377    1.467017   -2.730698
H     -4.342019   -0.065967    1.484391
H     -3.171471    0.068118    2.929478
H     -3.864189    1.480307    2.156195
H      2.286463   -2.484229   -2.221048
H      1.199332   -1.081560   -2.183616
H      3.017416   -0.886494   -2.360409
H     -0.622883    1.789642   -2.071291
H     -0.333292    3.530655   -1.825827
H     -1.930123    2.944612   -2.303809
H      3.173604    3.807224    0.881184
H      2.819760    2.413288    1.916115
H      3.966535    2.183876    0.556873
H     -1.444891   -3.933938    0.760039
H     -0.590271   -2.724074    1.747686
H     -0.282091   -4.992298   -0.903320
H      1.512541   -4.586489   -0.883259
H     -2.246444   -2.032754   -0.659116
H      1.498442    0.837880   -1.519500
H     -1.609229    1.229529    1.737050
H      3.372367   -1.950585   -0.209524
H     -2.171322    3.552683   -0.157776
H      1.794916    3.171798   -0.785457
H     -0.719983   -0.766402    1.636714
H      3.697680    0.166814    0.456761
H     -2.449860    0.846965   -1.025635
H     -1.065479   -0.626096   -1.152547
H      2.412962    0.002075    2.130286
H     -4.408706    1.137627   -0.316001
