62

C      1.435899    3.397264   -0.754075
C     -3.209198   -2.199751    0.970402
C     -1.577335   -1.605203    2.719999
C      2.765862    3.508049   -0.052717
C      3.558992    2.220033   -0.157095
C      2.779518    1.082418    0.479509
C     -3.639668    0.788935   -2.587037
C      3.576845   -0.223810    0.376145
C     -3.803455    2.100962   -1.886207
C     -3.352701   -0.164718   -1.410000
C      3.329614   -2.647741    1.038614
C     -3.734771    2.469544    0.579462
C     -1.766123   -2.046112    1.278938
C      2.736117   -1.277778    1.025309
C     -2.981644    2.005666   -0.654771
C      3.615536   -3.219992   -0.285354
C     -0.972825   -1.190886    0.325033
C      1.440227   -1.358538    0.300584
C     -1.432371    0.204251    0.214095
N      0.369830   -1.139123    0.937703
N      3.061679   -4.301014   -0.711403
N     -2.505753    0.661301   -0.550412
O     -2.866777    2.396412    1.657512
O      4.515816   -2.580124   -1.118968
O      1.366049   -1.665544   -1.047011
O     -0.778335    1.080441    0.885850
O      3.300063   -4.856604   -1.922632
H      1.252191    4.278999   -1.418530
H      0.612665    3.371045    0.001091
H      1.362201    2.480042   -1.389782
H     -3.391740   -2.665039   -0.008667
H     -3.600393   -2.969600    1.709641
H     -3.816021   -1.302962    1.188755
H     -2.220013   -0.751712    2.955029
H     -0.500053   -1.413219    2.857587
H     -1.809634   -2.505978    3.345590
H      2.589310    3.705490    1.028963
H      3.315188    4.345731   -0.502786
H      4.529775    2.354301    0.359944
H      3.702356    2.030501   -1.240541
H      2.571333    1.330203    1.539162
H      1.818616    0.957634   -0.051401
H     -2.743041    0.847611   -3.228232
H     -4.542874    0.469611   -3.142176
H      4.463224   -0.060676    1.052019
H      3.856012   -0.404584   -0.660774
H     -4.874417    2.187820   -1.589017
H     -3.495463    2.966416   -2.524623
H     -2.851289   -1.051097   -1.790593
H     -4.320809   -0.316001   -0.931179
H      2.637441   -3.329681    1.594459
H      4.251983   -2.621681    1.690940
H     -4.594803    1.835941    0.801168
H     -4.005096    3.536416    0.456648
H     -1.299593   -3.067495    1.220686
H      2.589025   -0.955920    2.080940
H     -2.068681    2.651744   -0.817001
H     -0.954680   -1.679157   -0.647910
H     -3.217083    2.824679    2.473048
H      5.136574   -3.117891   -1.745057
H      0.724948   -1.137606   -1.660865
H      3.661750   -4.262223   -2.658010
