69

C     -3.723959    1.153821   -0.620773
C     -1.050033   -0.075280   -0.459437
C     -4.575189    0.328035   -2.786338
C      0.328336   -2.040823   -0.844113
C      4.687868    2.071308    0.970759
C     -4.421061    0.272737   -1.277868
C      0.374149   -0.521458   -0.619195
C     -3.588615    1.078837    0.851203
C     -1.387721    0.054118    1.008232
C      5.245313    0.697596    0.555177
C     -5.105831   -0.839337   -0.579207
C     -5.009896    0.740856    1.342287
C     -0.605725    1.253193    1.464152
C      5.279867    0.637451   -0.941186
C     -5.233373   -0.690501    0.896723
C      5.384079   -0.820827   -1.350829
C      0.837816    0.876841    1.452808
C      4.146720   -1.574247   -0.868706
C      1.281234   -0.160122    0.503437
C      3.492127   -0.847712    0.272520
N     -2.750197    0.043792    1.339285
O     -3.895397    1.401073   -3.312787
O     -0.264501   -2.686549    0.241046
O      4.692282    2.099597    2.362264
O     -4.368826   -2.003282   -0.897744
O     -5.139672    0.897434    2.697445
O     -0.881007    2.323833    0.609941
O      6.353912    1.366496   -1.428117
O     -6.472291   -1.169616    1.374091
O      5.630446   -0.997805   -2.700884
O      1.151202    0.457674    2.771784
O      4.575366   -2.811802   -0.401590
O      4.441062   -0.253196    1.076587
O      2.543938    0.066563   -0.038114
H     -3.250542    1.949717   -1.213752
H     -1.707197   -0.778911   -0.972955
H     -1.115899    0.950284   -0.886339
H     -5.675590    0.525934   -2.941090
H     -4.373742   -0.631907   -3.259538
H     -0.235624   -2.301073   -1.739068
H      1.362709   -2.414758   -0.983428
H      3.659635    2.129929    0.618081
H      5.330819    2.885806    0.575291
H      0.735032   -0.109497   -1.586749
H     -3.387726    2.074005    1.307511
H     -0.912252   -0.833617    1.523279
H      6.277187    0.708219    0.995288
H     -6.116589   -1.026009   -1.053584
H     -5.731071    1.357683    0.747361
H     -0.889604    1.589594    2.481169
H      4.304037    1.047876   -1.309256
H     -4.472211   -1.374289    1.376826
H      6.245148   -1.230730   -0.791556
H      1.404844    1.822294    1.312287
H      3.526518   -1.747307   -1.742592
H      1.416917   -1.123346    1.090631
H      3.007206   -1.625942    0.945641
H     -2.853766    0.004603    2.376230
H     -4.294718    2.236210   -2.952236
H      0.181305   -3.589470    0.308945
H      4.266330    2.952996    2.628501
H     -4.743347   -2.456636   -1.713674
H     -5.495991    0.068641    3.105679
H     -0.071881    2.716627    0.210750
H      7.146376    1.206887   -0.871522
H     -7.100314   -0.447599    1.557740
H      5.003090   -1.636149   -3.132676
H      1.362712   -0.507341    2.772672
H      5.225774   -2.721422    0.349930
