34

C      2.506654    1.295638   -0.039776
C      2.837611   -0.914001    0.693824
C      3.866080    1.439868   -0.224740
C      4.216213   -0.767677    0.506252
C     -4.339103    0.359530   -0.426149
C     -2.374393    1.324055   -1.272125
C     -1.432581   -1.382445    1.189592
C      1.954478    0.107072    0.427333
C      4.749582    0.415141    0.043031
C     -3.750545    1.282342   -1.254034
C     -2.173581   -0.445272    0.333777
C     -3.571915   -0.490885    0.355453
C      0.039414   -1.383550    0.851271
C     -1.578173    0.476157   -0.492430
C      0.482367    0.014476    0.603863
O      6.117741    0.538787   -0.135639
O     -4.484340    2.153241   -2.053816
O     -4.211074   -1.392739    1.164783
O      0.298930   -2.225478   -0.228005
O     -0.193768    0.554241   -0.542605
H      1.806714    2.113784   -0.254109
H      2.439416   -1.846158    1.055581
H      4.274848    2.374017   -0.589355
H      4.879012   -1.587590    0.724878
H     -5.422863    0.333965   -0.418420
H     -1.899116    2.038900   -1.913058
H     -1.845651   -2.412830    1.092520
H     -1.532472   -1.021089    2.246769
H      0.554358   -1.739535    1.777619
H      0.149358    0.630927    1.480751
H      6.577505    1.352522   -0.463522
H     -4.737169    3.059806   -1.636730
H     -3.709987   -2.022940    1.748414
H     -0.493550   -2.232283   -0.802738
