61

C     -2.194106   -2.385735   -0.891858
C      2.585031    1.310240   -1.748359
C     -4.292309    1.048326    0.138390
C      3.645405   -2.447929   -0.419076
C     -1.693118    2.397403    1.542649
C      2.273033    3.016861    1.363539
C     -0.456447   -1.749241    0.840263
C      0.520312   -4.017337    0.034698
C     -1.910981   -1.886207    0.473398
C      2.741023    1.164496   -0.263703
C     -2.992298    0.316776   -0.231339
C      2.658313   -1.319480   -0.770938
C     -1.718014    2.521500    0.066311
C      1.632308    1.935100    0.473585
C     -2.633992   -0.608878    0.835706
C      2.850616   -0.243882    0.225369
C     -2.062788    1.330773   -0.749054
C      1.299249   -1.844486   -0.945452
C     -0.429549    3.069392   -0.435235
C      0.509167   -2.566052    0.085398
O     -3.862286   -1.013079    1.437970
O      4.139265   -0.408182    0.792202
O     -0.899288    0.827781   -1.330622
O      0.736530   -1.696662   -2.013999
O     -0.470770    4.267594   -0.897826
O      1.405363   -3.414327    0.890679
O      0.762588    2.448092   -0.456587
H     -3.239828   -2.784192   -0.885984
H     -1.982536   -1.739494   -1.732875
H     -1.567437   -3.308277   -1.041398
H      3.535730    1.000299   -2.227679
H      1.698305    0.859933   -2.183278
H      2.509609    2.415051   -1.943691
H     -5.151958    0.733016   -0.460550
H     -4.202912    2.128803    0.061049
H     -4.568634    0.795709    1.205066
H      3.536961   -3.307488   -1.077112
H      4.669777   -2.020459   -0.597112
H      3.612522   -2.679063    0.663326
H     -2.704614    2.114254    1.933619
H     -0.881028    1.855596    2.005182
H     -1.577801    3.460519    1.929076
H      1.803458    3.058827    2.349817
H      3.350011    2.856069    1.374922
H      2.091726    3.977593    0.798607
H     -0.335116   -1.986007    1.944033
H     -0.147424   -0.678976    0.804188
H      0.924972   -4.493967   -0.895192
H     -0.253875   -4.639140    0.526130
H     -2.290071   -2.716014    1.155265
H      3.693566    1.727416   -0.023970
H     -3.291626   -0.313365   -1.126937
H      3.061850   -0.931753   -1.742837
H     -2.541275    3.293261   -0.097244
H      1.229467    1.204700    1.197514
H     -2.072110   -0.185004    1.698619
H      2.183270   -0.327416    1.133378
H     -2.607493    1.760137   -1.661665
H     -4.329880   -1.640803    0.830145
H      4.833019    0.019634    0.246452
H     -1.130884    0.437740   -2.204974
