52

C     -2.440202    2.267305    1.556033
C      2.578496   -2.572398    0.117718
C      1.558443    1.683507   -1.843398
C      3.431233    1.299364   -0.348290
C     -1.946016   -0.215429   -1.787069
C     -3.895051   -0.950038    0.188170
C     -3.679385    0.370129    0.774082
C      2.451750   -0.457438    1.682351
C      1.514745    0.723134    1.828200
C      0.850702   -1.430515   -1.357151
C     -2.637997   -1.707371    0.001401
C     -0.393269   -1.832569   -0.642147
C     -0.262935    1.301951    0.099316
C     -2.495234    0.878057    0.927910
C      2.225020   -1.183826    0.357726
C      1.093490    1.424216    0.610061
C      1.671495   -0.479371   -0.612602
C     -1.210886    0.242538    0.552846
C      2.014503    0.988998   -0.583571
C     -1.486916   -0.802746   -0.503127
H     -1.512857    2.384555    2.151189
H     -2.601057    3.046991    0.803955
H     -3.281481    2.356994    2.287852
H      1.813652   -3.331097    0.114000
H      3.271783   -2.865013    0.972163
H      3.240177   -2.738881   -0.777168
H      1.019872    2.639894   -1.638552
H      2.458966    2.025963   -2.440095
H      1.020546    1.021631   -2.550649
H      3.629503    1.859307    0.613267
H      4.105794    0.396105   -0.419463
H      3.850523    1.993403   -1.137196
H     -2.229167    0.859614   -1.582866
H     -2.910910   -0.667355   -2.165999
H     -1.248269   -0.261369   -2.619544
H     -4.548908   -1.532056    0.886976
H     -4.483190   -0.842690   -0.745784
H     -4.584402    0.924408    1.084824
H      3.503826   -0.208267    1.821974
H      2.228182   -1.261929    2.445539
H      0.695016    0.379203    2.495023
H      2.093126    1.417782    2.523002
H      1.440893   -2.330553   -1.599023
H      0.645013   -0.966963   -2.357991
H     -2.309164   -2.284254    0.881042
H     -2.789025   -2.448257   -0.825277
H     -0.756364   -2.788414   -1.043235
H     -0.115014   -2.023757    0.438293
H     -0.301389    1.226954   -1.026012
H     -0.788638    2.297129    0.247206
H      1.392000    2.491738    0.698456
H     -0.891022   -0.318314    1.445638
