51

C      4.575027    1.376132   -1.527098
C     -3.215859    1.129881   -1.332052
C     -0.595016   -1.313322    1.518423
C     -2.880392   -1.761710   -0.080751
C      2.807998   -1.524457   -1.105049
C      1.430808   -1.836308   -0.573216
C     -0.654629    1.382128    1.329547
C     -3.489666   -0.509175    0.444021
C     -1.532556   -1.588239   -0.714638
C      0.823086    1.431438    1.207295
C      2.193172    1.373125   -0.802262
C      2.683166   -0.160468    0.952692
C     -3.237196    1.839153    0.967097
C      3.546171    0.824719   -0.941595
C      3.530015   -0.496329   -0.282201
C     -1.282541    0.671567    0.136209
C      0.708243   -0.521958   -0.409038
C     -2.755333    0.751405    0.086071
C     -0.700922   -0.719446    0.155032
C      1.487657    0.528417    0.272300
O     -3.620339    1.617512    2.090831
H      4.466032    2.353336   -1.977890
H      5.534341    0.892272   -1.578839
H     -3.955766    1.925759   -1.328970
H     -2.340491    1.470891   -1.925377
H     -3.589207    0.206977   -1.865347
H     -0.304075   -2.388003    1.383627
H     -1.538109   -1.328536    2.073535
H      0.163543   -0.870517    2.169448
H     -3.526743   -2.278725   -0.851156
H     -2.804317   -2.525852    0.747776
H      3.412903   -2.444266   -1.249230
H      2.663818   -1.108257   -2.144434
H      1.414519   -2.483639    0.293882
H      0.903925   -2.396246   -1.400115
H     -0.983764    0.878072    2.277946
H     -1.126463    2.387276    1.360671
H     -4.514908   -0.425821   -0.030492
H     -3.740305   -0.558041    1.545770
H     -1.042794   -2.586256   -0.784811
H     -1.618227   -1.203595   -1.755073
H      1.237079    1.271050    2.249951
H      1.094582    2.514109    1.011867
H      1.669847    1.242472   -1.786674
H      2.161806    2.443042   -0.545578
H      2.422645   -1.109148    1.410497
H      3.211410    0.538489    1.603217
H     -3.245581    2.846486    0.597448
H      4.538839   -0.831100    0.034610
H     -0.883070    1.253488   -0.750515
H      0.497639   -0.179781   -1.469373
