53

C     -4.673982    1.429404    1.061289
C      3.138043    1.887434    0.611596
C      0.890563   -1.768041   -0.829909
C      2.427662   -1.601957    1.637174
C     -3.239230   -1.504344    0.470736
C     -1.783591   -1.854179    0.173424
C      0.614927    1.629212   -0.517496
C      3.265054   -0.443210    1.279115
C      0.959097   -1.488421    1.533856
C     -0.550735    1.196995   -1.394318
C     -2.316240    1.460406    0.276576
C     -2.660260   -0.050558   -1.450750
C      3.330789    0.224066   -1.125412
C     -3.686470    0.896111    0.380746
C     -3.731465   -0.358978   -0.412352
C      1.206227    0.519877    0.256551
C     -0.958785   -0.592514    0.317459
C      2.703684    0.459064    0.204425
C      0.512491   -0.805066    0.223929
C     -1.555550    0.428119   -0.578159
O      2.959005    1.105903   -2.132415
H     -5.636794    0.942155    1.076037
H     -4.562306    2.351961    1.617410
H      3.163520    2.551448   -0.265428
H      4.194137    1.850868    0.999090
H      2.458608    2.310794    1.352204
H      0.098714   -2.583915   -0.820078
H      0.896104   -1.419517   -1.858307
H      1.803199   -2.371716   -0.593503
H      2.635588   -1.843966    2.731486
H      2.806500   -2.545757    1.139636
H     -3.362126   -1.278299    1.534466
H     -3.835267   -2.396266    0.173042
H     -1.499158   -2.653006    0.862110
H     -1.810933   -2.259510   -0.858835
H      1.327993    2.201666   -1.121168
H      0.150657    2.439234    0.143517
H      3.561512    0.126018    2.184342
H      4.240964   -0.834138    0.862100
H      0.469655   -1.006765    2.396694
H      0.529313   -2.518183    1.464118
H     -1.056157    2.115528   -1.756815
H     -0.199095    0.667865   -2.301344
H     -2.284906    2.430200   -0.223410
H     -1.840663    1.472086    1.278057
H     -3.014037    0.817924   -2.052792
H     -2.451499   -0.849139   -2.145113
H      3.168597   -0.784730   -1.565505
H      4.465959    0.390815   -1.055867
H     -4.706958   -0.558220   -0.856346
H      1.038313    0.848694    1.362014
H     -1.132632   -0.287247    1.398599
H      3.531964    1.903798   -2.191510
