51

C     -1.276444   -2.313853    0.342745
C     -2.562348   -0.558220    2.245541
C      6.678186    0.018525    0.878772
C      5.817673   -1.053138    1.023552
C      6.291580    1.127718    0.169251
C      4.574659   -1.005394    0.455053
C      5.015032    1.161049   -0.407671
C     -3.413051   -0.041620   -2.500474
C     -4.765121   -0.074243   -2.284650
C      2.767083    0.128228   -0.861768
C     -1.487681    1.375843    1.222925
C      1.883600    0.775350    0.106165
C     -0.169148    1.755646    0.726410
C     -1.069729    0.025873   -1.764065
C     -4.328991   -0.062155    0.088022
C     -0.841954   -0.919395    0.575080
C      4.149887    0.106013   -0.272341
C     -2.511497   -0.019118   -1.428831
C     -5.223460   -0.084595   -0.965126
C     -2.974176   -0.029455   -0.138124
C     -0.159726   -0.277044   -0.613726
C     -1.984461   -0.002951    0.957242
N      0.490696    0.895352   -0.177752
O     -6.578896   -0.119093   -0.692330
H     -2.333708   -2.511948    0.593858
H     -1.006916   -2.694586   -0.667538
H     -0.694536   -2.982157    1.047761
H     -3.055726    0.305093    2.772676
H     -3.261888   -1.399566    2.051949
H     -1.702501   -0.865255    2.874095
H      7.674397    0.024444    1.308982
H      6.110436   -1.916373    1.568368
H      6.905256    1.995509    0.013482
H      3.903063   -1.851801    0.565671
H      4.710232    2.028197   -0.959787
H     -3.036404   -0.036447   -3.528190
H     -5.461151   -0.094090   -3.105453
H      2.800815    0.759798   -1.794392
H      2.572944   -0.899980   -1.156705
H     -1.523711    1.556735    2.340103
H     -2.233623    2.082038    0.737714
H      1.940423    0.188456    1.070620
H      2.250594    1.786909    0.349754
H      0.539462    1.883141    1.611969
H     -0.147045    2.805077    0.284232
H     -0.868171   -0.694620   -2.594984
H     -0.866947    1.034134   -2.234505
H     -4.733618   -0.068271    1.102677
H     -0.110993   -0.866573    1.414833
H      0.597794   -1.018884   -0.944001
H     -7.290190   -0.136238   -1.407087
