27

C     -2.486303    0.886239   -1.042876
C     -3.004232   -0.954451    0.466070
C      3.502492    0.068028    0.330972
C      1.351155   -1.031875    0.804548
C     -0.112283   -1.081372    0.562152
C      0.101597    1.324653    0.189692
C     -2.090697    0.137186   -0.038733
C      2.034856   -0.086152    0.172884
C     -0.797032    0.256648    0.675248
C      1.234720    0.814402   -0.702323
O      0.646879    0.146331   -1.760287
H     -3.465405    0.717128   -1.503405
H     -1.921776    1.681663   -1.476763
H     -4.057614   -0.626733    0.289320
H     -2.865313   -1.890122   -0.096520
H     -2.877846   -1.108067    1.556283
H      3.758126    1.084096    0.751512
H      3.858054   -0.740040    1.005243
H      4.006237    0.011865   -0.660053
H      1.839451   -1.731806    1.463884
H     -0.562066   -1.737688    1.360085
H     -0.338349   -1.584063   -0.406414
H     -0.363415    2.191327   -0.287375
H      0.646323    1.751770    1.086177
H     -1.053510    0.459551    1.753973
H      1.830694    1.680139   -1.016358
H      1.185255   -0.638657   -2.001806
