27

C     -3.087799   -0.042858    1.329425
C     -2.672521   -0.031535   -1.038044
C      3.371913    0.372526    0.072269
C      1.385736   -1.063546    0.622766
C     -0.052701   -1.190508    0.159289
C     -0.052578    1.270471    0.190169
C     -2.179649   -0.007584    0.366539
C      2.060117   -0.145357   -0.403256
C     -0.764018    0.052028    0.713202
C      1.076368    0.919245   -0.715605
O      1.222569    1.520875   -1.772717
H     -4.171696   -0.088335    1.123218
H     -2.783629   -0.027629    2.373922
H     -2.625619   -1.076706   -1.458945
H     -3.713357    0.313388   -1.091768
H     -2.074970    0.630338   -1.699852
H      4.040622    0.558836   -0.795533
H      3.328377    1.275011    0.682908
H      3.841310   -0.430399    0.711243
H      1.403530   -0.585855    1.638033
H      1.878708   -2.035896    0.696975
H     -0.130982   -1.087891   -0.954728
H     -0.542915   -2.103855    0.534479
H      0.397226    1.837469    1.040786
H     -0.736202    1.953771   -0.332027
H      2.227750   -0.775795   -1.296657
H     -0.645589   -0.010209    1.811827
