29

C      3.160933    0.460092   -1.256138
C      2.797378   -0.955947    0.669484
C     -3.192282    0.127669    0.793484
C     -1.202227   -1.178949    0.078823
C      0.067965   -1.131930   -0.724467
C      0.274090    0.796991    0.744783
C      2.293263   -0.073550   -0.422067
C     -1.943141    0.129529   -0.035535
C      0.845105    0.153877   -0.507695
C     -1.110170    1.313712    0.349852
O     -0.940796    2.185906   -0.740762
H      2.754474    1.107133   -2.051085
H      4.218455    0.279511   -1.174309
H      2.899451   -1.981816    0.257939
H      2.083248   -0.940748    1.524189
H      3.795290   -0.647696    1.005041
H     -4.080526   -0.094190    0.169934
H     -3.128517   -0.615663    1.617081
H     -3.368326    1.135681    1.253981
H     -1.863307   -1.950289   -0.416822
H     -1.065614   -1.525808    1.107515
H     -0.191163   -1.257053   -1.799412
H      0.716977   -2.007479   -0.454254
H      0.134912    0.068995    1.551095
H      0.912128    1.613338    1.130662
H     -2.245604    0.239895   -1.099901
H      0.623027    0.833983   -1.361916
H     -1.557293    1.923073    1.168428
H     -1.687733    1.991733   -1.389858
