29

C     -3.313899   -0.995100   -0.302034
C     -2.639877    1.233420    0.260012
C      2.994236    0.822515    0.527809
C      0.881536    0.986784   -0.810442
C     -0.187601    0.072559   -1.391819
C     -0.086579   -0.544215    0.965391
C     -2.299239   -0.167298   -0.114786
C      1.974549    0.087328   -0.278264
C     -0.935220   -0.663435   -0.282581
C      1.308102   -0.975408    0.560987
O      2.077638   -1.340382    1.661369
H     -3.139920   -2.027168   -0.576018
H     -4.346851   -0.706208   -0.197608
H     -3.034439    1.724144   -0.667978
H     -3.513258    1.182303    0.957936
H     -1.795043    1.783325    0.701609
H      3.430216    1.633332   -0.091077
H      2.616389    1.192521    1.493130
H      3.826231    0.120602    0.741856
H      1.265029    1.609610   -1.642695
H      0.477622    1.665390   -0.057851
H     -0.928433    0.667277   -1.961455
H      0.346650   -0.668747   -2.010735
H     -0.432027   -1.298458    1.722723
H     -0.130477    0.429476    1.445330
H      2.492903   -0.341814   -1.169358
H     -0.959790   -1.743037   -0.529270
H      1.204413   -1.877931   -0.077890
H      2.847140   -1.861384    1.333273
