48

C     -4.003238   -0.754773    2.601503
C     -3.392280   -1.013302   -4.330357
C      5.983907    0.427089   -1.158159
C      6.067954   -0.944763   -1.060357
C      4.833678    1.079142   -0.786570
C      4.973444   -1.629047   -0.583650
C      1.834370    2.143023    0.243927
C      0.978499    2.166307    1.518519
C     -0.576575   -0.614145   -0.082676
C     -1.265034    1.184236    1.995441
C     -4.083774    0.357199   -0.384286
C     -3.603879    0.578804    2.002555
C      3.726169    0.392896   -0.304784
C      2.485572    0.812999    0.122892
C     -1.969205   -0.570079    0.451527
C     -2.214272    0.431793    1.500053
C     -2.971543   -0.305687   -0.640849
C      3.810895   -0.978729   -0.207263
C      0.421136   -0.279052    1.004357
C      1.808142   -0.330472    0.485922
C     -2.756929   -0.761309   -1.983145
N      2.620133   -1.386042    0.279652
N      0.059559    1.030685    1.503781
O     -1.710197   -1.395917   -2.261362
O     -3.661855   -0.533015   -3.007508
O     -4.424853    0.855237    0.866981
H     -3.115828   -1.203255    3.123356
H     -4.862846   -0.660806    3.289725
H     -4.298916   -1.429116    1.785738
H     -2.668260   -0.349699   -4.847951
H     -2.903969   -2.030059   -4.276746
H     -4.309036   -1.052120   -4.934914
H      6.836404    1.010259   -1.534196
H      6.990746   -1.469315   -1.358358
H      4.723505    2.163947   -0.847447
H      5.005677   -2.706848   -0.494072
H      2.594663    2.926696    0.357594
H      1.215759    2.360975   -0.646119
H      0.442082    3.120820    1.498649
H      1.682394    2.087804    2.367706
H     -0.404799    0.033578   -0.967782
H     -0.339724   -1.653455   -0.397232
H     -1.439115    1.930147    2.771805
H     -4.826132    0.558176   -1.173660
H     -3.674007    1.408605    2.734124
H     -2.272476   -1.582533    0.865953
H      0.255532   -1.021247    1.818388
H      2.398521   -2.405632    0.459290
