29

C     -1.358483   -0.778356   -2.193364
C     -1.421593   -2.185393   -0.207544
C      3.926474   -0.202110   -0.776929
C      1.433034    0.106261   -0.402602
C      0.363415    0.334981    0.617863
C     -2.108670    0.607131    0.864963
C     -1.251525   -0.856993   -0.869024
C      2.787772    0.038478    0.140857
C     -0.968495    0.376852   -0.113968
C     -1.937228    1.905104    1.579958
O      3.056411    0.168979    1.323979
O     -1.790685    2.993399    0.922280
O     -1.923640    2.025930    2.968766
H     -1.565352   -1.678974   -2.743125
H     -1.241717    0.179290   -2.726086
H     -2.082182   -2.806817   -0.861782
H     -0.461867   -2.717744   -0.119500
H     -1.894288   -2.049094    0.766639
H      4.391748    0.810477   -0.960792
H      4.666750   -0.909729   -0.356985
H      3.527255   -0.535513   -1.748230
H      1.217561   -0.890794   -0.881625
H      1.371498    0.903548   -1.176184
H      0.319142   -0.480295    1.381817
H      0.523370    1.280875    1.166447
H     -2.286204   -0.218840    1.552792
H     -3.036130    0.697782    0.234575
H     -1.004341    1.236386   -0.815410
H     -1.252029    2.645181    3.432213
