19

C     -2.288371   -0.807370   -0.155380
C      2.733030    0.009784   -0.231318
C      2.162112    1.125459    0.336065
C      1.929264   -1.052244   -0.571906
C      0.800956    1.192501    0.566660
C      0.561707   -0.980305   -0.338247
C     -1.449182    0.248117    0.491176
C     -0.014718    0.122853    0.224536
O     -1.920402    1.494786    0.088668
H     -2.295884   -0.666597   -1.258587
H     -3.334577   -0.671486    0.223490
H     -1.996748   -1.830814    0.148678
H      3.812861   -0.058347   -0.420708
H      2.816652    1.948578    0.595341
H      2.328506   -1.963356   -1.025316
H      0.378365    2.074399    1.010897
H     -0.097944   -1.805657   -0.597742
H     -1.607697    0.196491    1.602082
H     -2.517930    1.423210   -0.688390
