26

C      3.321266    0.612605    0.303864
C     -2.791567    1.026484   -0.397581
C     -1.947080   -0.893042    1.008067
C      1.712545   -0.938376   -0.729029
C      0.280715   -1.396854   -0.765967
C      0.843277    0.546139    0.935674
C      1.985697    0.037067    0.127867
C     -0.576439   -0.198007   -1.000867
C     -0.289706    0.842991   -0.003117
C     -1.591290    0.203698    0.065610
H      3.292341    1.663144    0.659863
H      3.851405    0.031050    1.101186
H      3.925323    0.489717   -0.619861
H     -3.009287    1.756096    0.413120
H     -2.463530    1.630199   -1.273696
H     -3.663408    0.392887   -0.631088
H     -2.253275   -1.778617    0.404551
H     -2.840101   -0.622576    1.615557
H     -1.163825   -1.215669    1.684900
H      2.483558   -1.354366   -1.343539
H      0.090750   -1.886028    0.212805
H      0.219130   -2.123650   -1.612532
H      0.615531   -0.218123    1.688597
H      1.112529    1.470839    1.484821
H     -0.898125    0.031487   -2.031828
H     -0.246437    1.890905   -0.413183
