54

C      6.735024   -0.190367    1.408380
C      6.697871   -0.075419    0.031459
C      5.586770    0.150410    2.095650
C     -6.227716    1.348101    1.755293
C      5.597238    0.352005   -0.664506
C      4.459434    0.585953    1.411122
C     -5.614779    1.749231    0.628703
C      3.268478    1.179659   -0.673744
C      2.321783    0.178999   -1.223446
C     -5.537703    0.585552    2.634841
C     -3.204316    0.568322   -1.660944
C     -2.745730   -1.787642   -1.953521
C     -0.514292    1.579290   -0.617390
C      4.438512    0.695107    0.039855
C      1.649163   -0.741360   -0.263863
C     -0.494620    0.364896    0.242151
C     -4.353597    1.393241    0.399964
C     -3.423368    1.689984   -0.734969
C     -3.796296   -2.614645   -1.352397
C     -1.465118   -0.664864   -0.259042
C      2.593984   -1.605258    0.522006
N      0.721541   -0.202841    0.623612
N     -2.464017   -0.560231   -1.253855
O     -4.139404   -3.719059   -1.896597
O     -4.413262   -2.186040   -0.187838
O     -1.336765   -1.759971    0.313498
O      2.423748   -1.796562    1.745595
O      3.678801   -2.211687   -0.092944
S     -3.902902    0.418412    1.817536
S     -1.998662    2.540015   -0.092944
H      7.638005   -0.533501    1.883106
H      7.577035   -0.330154   -0.582330
H      5.585411    0.069641    3.186650
H     -7.297600    1.610446    2.018619
H      5.550539    0.446617   -1.729035
H      3.594292    0.835788    2.027704
H     -6.163489    2.382006   -0.117589
H      2.693714    1.954331   -0.078580
H      3.665158    1.803150   -1.535047
H      2.840269   -0.437516   -2.048894
H      1.544095    0.712337   -1.806578
H     -5.772122    0.128940    3.602381
H     -2.741782    0.953247   -2.620031
H     -4.235565    0.251306   -2.014638
H     -1.845995   -2.430918   -2.068849
H     -3.074974   -1.588392   -3.016388
H     -0.637135    1.347818   -1.703433
H      0.347117    2.213786   -0.382535
H      1.084271   -1.499709   -0.917612
H     -0.992313    0.689651    1.226681
H     -3.978237    2.471110   -1.361711
H      0.721023   -0.589316    1.593531
H     -4.889887   -2.854520    0.397195
H      4.248373   -2.869381    0.428538
