77

C      7.356073   -3.685252   -1.323592
C      7.799389    2.863534    1.819447
C     -1.861681   -2.906499   -2.093413
C     -2.664080    2.812000    2.383499
C      6.142989   -1.279194   -0.397279
C      6.302359    0.842403    0.621583
C     -0.685483   -0.675507   -0.703044
C     -0.945060    1.184223    0.754320
C     -7.269531   -0.319557    1.650846
C      2.887567    2.206374   -0.152269
C      2.559670   -1.012373    1.214955
C      5.506042   -0.118842    0.039496
C     -0.142227    0.394265   -0.030180
C      3.409511    1.086238    0.684006
C      2.088852    0.389321    1.061286
C      7.500483   -1.463436   -0.258022
C      7.669902    0.677651    0.771837
C     -2.055638   -0.970340   -0.597706
C     -2.285756    0.914853    0.871615
C     -7.178232    0.734994    0.570794
C      8.265698   -0.479053    0.330029
C     -8.029986    0.377416   -0.628433
C     -7.246094   -0.188115   -1.753548
C     -5.925836   -0.766970   -1.292528
C      4.037343    0.013840   -0.148186
C      1.299222    0.668743   -0.172742
C     -2.847463   -0.168702    0.192176
C     -5.173768    0.231857   -0.505054
O     -8.629345   -0.577844    1.846547
O      9.640437   -0.672217    0.468321
O     -8.701553    1.517937   -1.101396
O     -7.916581   -1.163698   -2.483486
O     -5.212764   -1.001501   -2.490426
O      8.052765   -2.641696   -0.718397
O      8.440370    1.686366    1.372870
O     -2.595282   -2.047757   -1.275736
O     -3.141199    1.691115    1.658450
O      3.443083   -1.178244    0.160856
O      1.556578    2.019897   -0.395930
O     -5.913682    1.121556    0.240399
O     -4.222491   -0.420151    0.327943
H      6.408709   -3.968730   -0.829136
H      7.092230   -3.451237   -2.377638
H      8.025120   -4.574635   -1.353696
H      7.095776    2.672228    2.662652
H      8.531847    3.606029    2.202951
H      7.186551    3.283431    0.996119
H     -1.338311   -3.644447   -1.440974
H     -1.124756   -2.417650   -2.741634
H     -2.591182   -3.418877   -2.768418
H     -3.525793    3.447863    2.639861
H     -2.094368    2.529710    3.285103
H     -1.924887    3.377718    1.744502
H      5.510697   -2.046846   -0.862771
H      5.833189    1.764816    0.969933
H     -0.076831   -1.311596   -1.325293
H     -0.490855    2.013819    1.269802
H     -6.686610   -1.230396    1.430797
H     -6.882175    0.066198    2.618228
H      3.031903    3.144193    0.434133
H      3.453922    2.309954   -1.095069
H      3.139184   -1.094343    2.156774
H      1.751115   -1.769926    1.150165
H      3.960812    1.383751    1.580992
H      1.663975    0.833572    1.978434
H     -7.679704    1.646364    1.018402
H     -8.790675   -0.353474   -0.300484
H     -6.979637    0.629905   -2.469522
H     -6.042061   -1.748366   -0.813293
H      3.794641    0.233421   -1.224971
H      1.760008    0.113349   -1.013861
H     -4.570239    0.864160   -1.215089
H     -8.897712   -1.454310    1.513207
H     10.199258    0.031873    0.889658
H     -8.134005    1.999445   -1.758401
H     -8.871447   -1.198846   -2.185440
H     -5.052297   -1.965758   -2.605733
