59

C      3.612806   -2.238650   -0.531022
C     -2.342100   -2.393313   -1.752181
C      3.064466   -3.077452    0.547443
C     -3.430041   -2.160268   -0.744571
C     -1.375236    4.084132    0.096086
C     -0.143225    3.639516   -0.710606
C      3.717469   -0.791566   -0.343384
C     -1.138657   -1.478709   -1.519091
C      2.334011   -2.347293    1.647032
C     -3.674239   -0.694937   -0.482975
C     -2.230125    2.972370    0.560609
C      1.884848    2.162667   -0.231698
C      1.006509    0.078765   -0.682283
C      0.529710   -0.674038    1.447125
C     -2.566558    0.725263    1.101798
C      0.409810    2.526147    0.081116
C      1.950675    0.843789    0.260633
C      2.843386   -0.180014    0.716985
C     -1.318316   -0.843834   -0.199212
C     -0.536544    1.400314    0.247693
C     -0.176759   -0.021072    0.296130
N      1.856434   -1.166288    1.213908
N     -2.493489    0.044852   -0.195983
N     -1.595647    1.835435    1.149423
H      3.057445   -2.459094   -1.493863
H      4.650764   -2.634600   -0.764443
H     -2.042168   -3.475690   -1.648192
H     -2.733118   -2.291455   -2.770666
H      3.836009   -3.717985    1.036269
H      2.325953   -3.827572    0.130634
H     -4.373632   -2.572620   -1.182687
H     -3.263207   -2.717126    0.211375
H     -1.968197    4.775352   -0.499007
H     -0.935591    4.598658    1.000232
H      0.539915    4.508116   -0.754961
H     -0.454560    3.319019   -1.719168
H      3.438550   -0.253049   -1.299780
H      4.789564   -0.462911   -0.185539
H     -0.252581   -2.110394   -1.526574
H     -1.139712   -0.747748   -2.368315
H      1.560738   -2.987920    2.066645
H      3.074652   -2.194384    2.490681
H     -4.441536   -0.612702    0.290951
H     -4.107541   -0.279213   -1.434638
H     -2.868063    2.608087   -0.272789
H     -2.931012    3.391127    1.321218
H      2.549427    2.930411    0.157272
H      1.933195    2.213569   -1.353495
H      1.297716   -0.939261   -0.906462
H      0.762628    0.575198   -1.604370
H     -0.041808   -1.637966    1.657113
H      0.394848   -0.143556    2.428793
H     -3.572846    1.073550    1.335447
H     -2.186959   -0.018402    1.846051
H      0.522618    2.951549    1.135903
H      1.544399    1.068881    1.316298
H      3.496890    0.009650    1.596450
H     -1.553234   -1.630536    0.548963
H     -1.098734    1.445200   -0.758324
