58

C     -3.355241   -2.291916    0.190763
C      4.556160   -0.898253    0.149667
C     -2.604955   -3.575688    0.472136
C      3.939048   -1.895817   -0.762592
C     -2.410728    3.838934   -0.279031
C     -1.171087    3.677588    0.613479
C      3.554189    0.073269    0.753170
C     -2.374549   -1.406062   -0.598836
C     -1.110434   -3.391087    0.394810
C     -2.982151    2.566841   -0.772735
C      2.407288   -1.928200   -0.655878
C      1.143404    2.622385    0.373243
C      0.670942    0.431881    0.862727
C      0.524502   -0.481362   -1.255069
C     -0.339262    2.675041   -0.067850
C      1.520628    1.328573   -0.040531
C      2.624720    0.484279   -0.365812
C     -1.327274   -0.985679    0.370067
C     -1.032950    1.365825   -0.252936
C     -0.389632    0.060798   -0.197137
N     -0.655165   -2.132114    0.884529
N     -2.041571    1.588331   -1.282777
N      1.909312   -0.694842   -0.913007
H     -4.225166   -2.451527   -0.478095
H     -3.603031   -1.728639    1.105574
H      5.255984   -0.264796   -0.456628
H      5.138997   -1.368300    0.967030
H     -2.885729   -4.294796   -0.325548
H     -2.935523   -4.009204    1.432718
H      4.198560   -1.743260   -1.841661
H      4.285628   -2.907271   -0.458519
H     -3.153718    4.355382    0.329814
H     -2.154645    4.499924   -1.130673
H     -1.443941    3.447592    1.649807
H     -0.658947    4.676364    0.559459
H      4.062526    0.983713    1.094491
H      3.084859   -0.402832    1.601050
H     -2.907264   -0.605029   -1.113603
H     -1.972752   -2.108234   -1.389718
H     -0.664432   -4.184926    1.053858
H     -0.725451   -3.625792   -0.625217
H     -3.490123    2.062032    0.101423
H     -3.732030    2.816829   -1.547362
H      2.187907   -2.455852    0.278987
H      2.103841   -2.643278   -1.477921
H      1.103398    2.731166    1.493399
H      1.686569    3.483971   -0.003399
H      1.103982   -0.509689    1.160135
H      0.244389    0.897577    1.736343
H      0.163563   -1.547839   -1.428885
H      0.373104   -0.031993   -2.267770
H     -0.211800    3.079270   -1.129546
H      1.171011    1.432611   -1.135948
H      3.308625    0.792915   -1.194016
H     -1.851276   -0.489194    1.228164
H     -1.687065    1.340335    0.695048
H     -0.600269   -2.127904    1.911719
H     -1.624975    1.867953   -2.193505
