58

C     -2.734407   -2.713180   -0.405979
C      4.088354   -2.046033   -1.216132
C     -3.833621   -1.984205    0.323946
C      3.623743   -2.777342   -0.000845
C     -1.235583    4.199477    0.700491
C     -0.465871    3.704890   -0.535080
C      3.108456   -0.943699   -1.645076
C     -1.359747   -2.164219   -0.029451
C     -3.803094   -0.506398    0.056048
C     -1.788429    3.141838    1.559208
C      2.145578   -2.495926    0.317288
C      1.532707    2.148731   -0.917944
C      0.486850    0.110181   -0.941651
C      0.853065   -0.612500    1.226259
C      0.329680    2.574658   -0.039669
C      1.751912    0.826686   -0.467157
C      2.696850   -0.234024   -0.384303
C     -1.495428   -0.744076    0.369821
C     -0.511408    1.496316    0.525918
C     -0.223370    0.056613    0.425795
N     -2.494668   -0.127044   -0.479167
N     -1.010896    1.976544    1.811810
N      1.982331   -1.161863    0.527566
H     -2.771031   -3.776683   -0.179369
H     -2.883716   -2.592905   -1.497092
H      4.313093   -2.714591   -2.075627
H      5.045684   -1.502338   -1.005661
H     -3.788362   -2.244872    1.395953
H     -4.794006   -2.370188   -0.075884
H      4.178227   -2.367115    0.887192
H      3.825709   -3.851189   -0.032094
H     -2.025313    4.895918    0.415873
H     -0.467909    4.784487    1.284874
H      0.125056    4.533695   -0.932282
H     -1.219694    3.361744   -1.291004
H      2.320032   -1.434707   -2.197043
H      3.626101   -0.226688   -2.284311
H     -0.717720   -2.393220   -0.874510
H     -1.059142   -2.758499    0.874309
H     -4.622943   -0.155713   -0.599145
H     -3.877939    0.001460    1.050975
H     -2.764276    2.801635    1.117748
H     -2.054981    3.592676    2.533577
H      1.973377   -3.059253    1.281596
H      1.552045   -3.022717   -0.443561
H      2.373881    2.827018   -0.820090
H      1.167045    2.221197   -1.971714
H     -0.102933    0.625980   -1.686490
H      0.599759   -0.916854   -1.249122
H      0.361376   -1.541985    1.659324
H      1.126912   -0.061947    2.168947
H      0.896899    3.003004    0.858781
H      1.808436    1.078964    0.658380
H      3.668187   -0.040424    0.152168
H     -1.919567   -0.700091    1.410609
H     -1.464830    1.574282   -0.115628
H     -2.469559   -0.559674   -1.450661
H     -1.600905    1.264167    2.249282
