43

C      3.919975   -0.047806   -0.355228
C     -2.812692    1.158518   -0.645276
C      3.589534    1.392453   -0.602222
C     -3.447241   -0.058199   -1.226508
C      2.776580   -0.900003   -0.788365
C     -2.713824    0.945606    0.846482
C      2.348240    1.727662    0.155939
C     -3.149401   -1.321741   -0.468269
C      0.212202   -1.242374    1.394502
C     -0.847487   -1.456032   -0.671168
C      0.549814    1.044928    1.497847
C      0.554978   -1.545906   -0.068193
C     -0.445888    0.116911    1.111678
C      1.410647   -0.310003   -0.382731
C     -1.830994   -0.179376    1.201078
N      1.737407    0.548199    0.742584
N     -1.949319   -1.330124    0.268053
H      4.801079   -0.314669   -0.961686
H      4.152419   -0.232664    0.715148
H     -1.863158    1.442474   -1.105471
H     -3.497826    2.046244   -0.781997
H      4.430011    1.999165   -0.204531
H      3.522531    1.575756   -1.685315
H     -4.565132    0.089960   -1.166559
H     -3.212684   -0.121575   -2.297958
H      2.835911   -1.040003   -1.887634
H      2.924192   -1.909199   -0.347207
H     -3.725823    0.852096    1.252984
H     -2.255506    1.890420    1.258760
H      1.627409    2.258611   -0.523555
H      2.548313    2.438952    0.985504
H     -3.999519   -1.604957    0.215547
H     -3.097334   -2.140454   -1.216303
H      1.116471   -1.202499    1.999575
H     -0.434656   -1.990336    1.831453
H     -0.911533   -0.791612   -1.542456
H     -1.010481   -2.493747   -1.101438
H      0.858924    1.014913    2.579042
H      0.352914    2.110092    1.271859
H      1.053067   -2.485477   -0.211745
H     -0.470528    0.438572    0.004688
H      1.075335    0.225691   -1.277735
H     -2.156928   -0.598467    2.186825
