59

C      4.673852   -1.191593    0.537088
C     -2.375573   -2.500581    1.621813
C      4.191518   -2.000579   -0.617360
C     -3.177886   -2.763101    0.366433
C     -2.454473    3.100571    0.262390
C     -1.061208    3.407205    0.844316
C      3.666964   -0.166455    1.012199
C     -1.158820   -1.683688    1.340093
C      2.664072   -2.009020   -0.713051
C     -3.480388   -1.526355   -0.409489
C     -2.398985    2.658940   -1.170416
C      1.286055    2.419261    0.661768
C      0.788789    0.181180    0.877497
C      0.858399   -0.488324   -1.342890
C     -2.476503    0.262604   -1.531092
C     -0.154766    2.511415    0.096809
C      1.715945    1.174289    0.161545
C      2.850413    0.363477   -0.147730
C     -1.172223   -1.149167   -0.049144
C     -0.797528    1.235669   -0.304821
C     -0.142858   -0.078763   -0.300655
N      2.209819   -0.742547   -0.895823
N     -2.473170   -0.515853   -0.325766
N     -1.676602    1.470199   -1.451934
H      5.626325   -0.683504    0.206136
H      4.997515   -1.824930    1.406762
H     -2.988602   -2.038295    2.424129
H     -2.091765   -3.514962    2.018481
H      4.467171   -3.078373   -0.423845
H      4.572647   -1.695135   -1.597101
H     -4.142607   -3.224858    0.702822
H     -2.654850   -3.540474   -0.213663
H     -2.970601    4.106139    0.247435
H     -3.050852    2.471959    0.921691
H     -1.137379    3.107637    1.929669
H     -0.811854    4.465249    0.780389
H      4.284651    0.717586    1.352982
H      3.089788   -0.476706    1.874658
H     -0.252508   -2.351608    1.428453
H     -1.046070   -0.931272    2.131745
H      2.313470   -2.630283    0.118373
H      2.459876   -2.620244   -1.643545
H     -3.596703   -1.827783   -1.490690
H     -4.476094   -1.111771   -0.098388
H     -3.422670    2.628372   -1.547168
H     -1.892510    3.496859   -1.735377
H      1.206999    2.443213    1.784837
H      1.878522    3.292515    0.381391
H      0.277032    0.573486    1.752675
H      1.214010   -0.766747    1.145162
H      0.791525    0.076891   -2.298868
H      0.531590   -1.527090   -1.679518
H     -3.506622    0.504099   -1.782115
H     -2.073603   -0.363957   -2.379726
H      0.037701    3.050879   -0.890564
H      1.470019    1.395760   -0.944489
H      3.612040    0.762724   -0.857717
H     -1.027288   -1.962913   -0.764333
H     -1.593143    1.108755    0.517827
