42

C     -4.065151    0.678749   -0.431880
C      4.069893   -0.688375   -0.494836
C     -4.152388   -0.847591   -0.357791
C      4.170878    0.798363   -0.459874
C      2.640688   -1.182299   -0.763745
C     -2.933020    1.203181    0.405649
C     -2.764452   -1.345610   -0.708560
C      3.189172    1.463359    0.483870
C     -0.016058   -0.026814    1.627260
C     -0.658587   -1.746319    0.206026
C      0.394123   -0.801441    0.353972
C     -0.592538    1.206748    0.922464
C      1.796591   -0.655024    0.331750
C     -1.593390    0.536514    0.009601
C      0.691465    1.626936    0.226939
N     -1.867061   -0.876827    0.290469
N      1.908942    0.848737    0.352514
O      0.751955    2.661882   -0.482684
H     -4.030954    1.041095   -1.456619
H     -5.002722    1.048093    0.032435
H      4.762226   -1.072718   -1.239617
H      4.331915   -1.077806    0.518413
H     -4.914332   -1.179155   -1.069129
H     -4.402966   -1.112711    0.700841
H      4.001784    1.209150   -1.474435
H      5.176308    1.065066   -0.117342
H      2.315424   -0.915455   -1.775879
H      2.694004   -2.284156   -0.665950
H     -3.108584    1.124557    1.476303
H     -2.800417    2.274232    0.143640
H     -2.491920   -0.844941   -1.675893
H     -2.747936   -2.446623   -0.850650
H      3.512211    1.359287    1.552912
H      3.105738    2.514287    0.174523
H     -0.758101   -0.536832    2.238459
H      0.805516    0.235288    2.284722
H     -0.724470   -2.452438    1.063717
H     -0.666616   -2.344979   -0.711522
H      0.170125   -0.241900   -0.631920
H     -0.969483    1.951752    1.588855
H      2.278385   -0.944096    1.302906
H     -1.506193    0.776830   -1.047562
