39

C      5.073218   -0.029630   -0.265888
C      3.471643    1.023557    1.273482
C     -1.265202    1.967259   -0.370410
C     -4.885834    1.707052    0.157800
C     -3.738034   -2.256261    0.446710
C     -2.417378   -2.620639    0.305846
C     -4.126511   -0.939483    0.351700
C      2.276325   -1.172875   -0.504246
C      3.823643    0.778185   -0.162519
C     -1.450415   -1.666148    0.064945
C      0.793363   -1.092549   -0.308916
C     -3.159384    0.039618    0.108002
C      2.664008    0.204373   -0.943021
C     -1.847238   -0.337281   -0.030277
C     -0.135989   -2.055063   -0.072288
C      0.430957    0.215049   -0.406484
N     -0.869099    0.574034   -0.267844
O      0.167389   -3.273468    0.023354
O     -3.521795    1.370700    0.007792
O      1.530695    1.021592   -0.649051
H      5.214785   -0.322729   -1.325862
H      5.935562    0.620551    0.000455
H      5.093074   -0.902398    0.409043
H      3.415118    0.054262    1.815488
H      2.495862    1.556090    1.321467
H      4.273246    1.677417    1.714971
H     -1.615753    2.412127    0.569097
H     -1.869162    2.191865   -1.270438
H     -0.297634    2.539090   -0.568816
H     -5.036013    2.798075    0.005603
H     -5.210863    1.361892    1.161978
H     -5.529623    1.185475   -0.581425
H     -4.480590   -3.031017    0.636418
H     -2.114786   -3.666866    0.382180
H     -5.137844   -0.608204    0.453675
H      2.468175   -1.910182   -1.305574
H      2.696461   -1.463895    0.473383
H      4.036834    1.779738   -0.619075
H      2.848789    0.270688   -2.031252
