56

C     -1.396600    5.075829   -0.444930
C     -3.098233    3.393751    0.519001
C     -3.397086   -2.917751    1.582149
C     -5.331877   -2.333782    0.006145
C      6.280861    0.202785    0.778442
C      5.585625   -0.763488   -1.369663
C     -0.710615    2.935944    0.582994
C     -1.019458    1.661134    1.240180
C     -3.046927   -2.478708   -0.772748
C     -1.603287   -2.721100   -0.535092
C      3.909225   -0.154355    0.321643
C     -1.709003    3.761683    0.233553
C     -3.887294   -2.573593    0.232412
C      5.309759   -0.733184    0.101002
C     -0.449441    0.516993    0.460382
C      2.903665   -1.008558   -0.307211
C      1.484642   -0.723908   -0.218721
C      0.989891    0.325572    0.435471
C     -1.294368   -0.299833   -0.134798
C      0.578686   -1.655724   -0.871912
C     -0.867021   -1.436201   -0.916673
O      3.295376   -2.012733   -0.937043
O      1.882225    1.165768    1.053698
O     -2.668838   -0.066392   -0.010007
O      1.073691   -2.720337   -1.434814
O     -1.172276   -1.145961   -2.280800
H     -2.337446    5.559072   -0.732647
H     -0.840021    5.727936    0.261040
H     -0.801333    4.825062   -1.346033
H     -3.219739    3.172935    1.603906
H     -3.762337    4.278026    0.330865
H     -3.444430    2.527476   -0.066686
H     -2.657079   -2.133690    1.874503
H     -4.245339   -2.963803    2.297900
H     -2.864617   -3.877913    1.565458
H     -5.540956   -2.030487   -1.041054
H     -5.644669   -1.491429    0.661277
H     -5.869128   -3.262405    0.252068
H      6.297796   -0.074705    1.856880
H      5.909375    1.249074    0.723802
H      7.256172    0.115451    0.293054
H      6.382011   -0.033876   -1.626425
H      4.710250   -0.488760   -1.999103
H      5.958392   -1.783542   -1.630928
H      0.289523    3.275556    0.349157
H     -2.103036    1.516504    1.374174
H     -0.547861    1.636352    2.261590
H     -3.374171   -2.225335   -1.788188
H     -1.227051   -3.516421   -1.190469
H     -1.388362   -2.954355    0.508009
H      3.738340   -0.091906    1.407106
H      3.878277    0.879205   -0.094118
H      5.342416   -1.709916    0.586909
H      2.147668    2.080756    0.852963
H     -3.161622    0.148155   -0.866647
H     -0.522343   -1.646869   -2.856519
