58

C     -3.958404   -2.661883   -1.402281
C     -0.264693   -1.206752    1.892873
C     -4.151036    2.245353   -3.083459
C      4.082517   -2.729681    2.356481
C      3.011810    3.017065   -1.832968
C      5.758615    1.631878    1.870962
C     -2.902795   -2.474622   -0.579150
C     -4.241895    1.452406    0.073871
C     -3.798379    1.253015    1.305339
C     -2.980161   -1.424403    0.423810
C      2.488448   -1.220932    0.653097
C      2.126866    0.651171   -0.717456
C     -2.186740    0.477504   -0.972438
C     -0.627810   -0.569070    0.587689
C      1.660516   -0.524883   -0.175119
C     -3.498585    1.134196   -1.157076
C      3.776313   -0.782145    0.962941
C      3.409850    1.113570   -0.425160
C     -2.481741    0.677716    1.460115
C      0.258784   -0.977166   -0.519244
C      4.229072    0.398135    0.411779
C     -2.050254   -0.273029    0.348885
O     -1.764910    0.952121    2.438377
O      0.361605   -2.365433   -0.715593
O     -3.422717    2.308737   -1.909805
O      4.582462   -1.538464    1.820153
O      3.863501    2.288585   -0.972651
O      5.522272    0.805876    0.744079
H     -4.859365   -2.028588   -1.312154
H     -3.884416   -3.439687   -2.135310
H     -0.112693   -2.314536    1.691400
H     -1.074714   -1.207475    2.654290
H      0.647246   -0.777325    2.348892
H     -4.037011    3.199103   -3.606772
H     -3.863773    1.364212   -3.713308
H     -5.238326    2.138209   -2.839468
H      3.161757   -2.500249    2.942543
H      3.750565   -3.357823    1.479542
H      4.816780   -3.291018    2.947603
H      2.070996    3.264900   -1.274820
H      2.781217    2.447279   -2.738369
H      3.509325    3.963546   -2.137671
H      4.827714    2.083152    2.271337
H      6.492454    2.434511    1.642978
H      6.174760    1.022587    2.718629
H     -2.080282   -3.150676   -0.728623
H     -5.223729    1.880972   -0.033611
H     -4.403861    1.516286    2.172062
H     -4.063281   -1.065893    0.477401
H     -2.887770   -1.932992    1.448488
H      2.163301   -2.138722    1.087998
H      1.529584    1.264675   -1.386785
H     -1.964380   -0.222383   -1.801595
H     -1.395558    1.253605   -0.985156
H     -0.214929    0.556204    0.780832
H     -4.163168    0.439627   -1.751503
H      0.019581   -0.538372   -1.490760
H      0.719464   -2.521994   -1.616137
