44

C      3.180677    1.869325    0.380696
C     -3.428954   -2.136077   -0.465232
C      4.496165    2.130519    0.705534
C     -4.743686   -2.065983   -0.893400
C      1.474326    0.334956   -0.673367
C     -1.543407   -1.318658    0.906373
C      3.905528   -0.167986   -0.600887
C     -3.778471   -0.259241    0.954535
C      0.683088    0.332549    1.636266
C      7.475771    0.242866   -0.183827
C     -7.181843    0.488211   -0.063934
C      2.856285    0.701935   -0.286187
C     -2.955117   -1.238334    0.450847
C      0.753431   -0.477982    0.362829
C     -0.722220   -0.466918   -0.016843
C      5.522240    1.280841    0.398388
C     -5.578814   -1.068809   -0.379144
C      5.206836    0.114348   -0.266862
C     -5.093739   -0.156325    0.553257
C     -1.054154    0.955919    0.259468
O     -1.947815    1.605470   -0.348825
O     -0.204078    1.362944    1.273753
O      6.911454    1.275653    0.591899
O     -6.905013   -0.775231   -0.627113
O      6.390734   -0.593570   -0.476341
O     -6.125322    0.703471    0.881513
H      2.377309    2.576551    0.641097
H     -2.782561   -2.901243   -0.857782
H      4.723138    3.062412    1.233464
H     -5.095645   -2.779009   -1.611975
H      1.556790   -0.209713   -1.640408
H      0.945021    1.279660   -0.898962
H     -1.514207   -1.019698    1.952498
H     -1.212946   -2.370528    0.788293
H      3.640671   -1.079372   -1.123259
H     -3.409109    0.448376    1.675075
H      0.304266   -0.269990    2.491656
H      1.680277    0.693352    1.934380
H      8.244347   -0.287638    0.440031
H      7.973225    0.649751   -1.090804
H     -8.165286    0.535747    0.428182
H     -7.106153    1.238177   -0.883943
H      1.144850   -1.479790    0.497664
H     -0.897889   -0.760938   -1.049909
