50

C     -5.308858    2.659563   -0.648018
C     -0.592134   -0.069284   -2.328387
C      6.695113    0.391035   -1.518954
C      3.340828    1.762113    2.739307
C     -2.824030   -2.821680   -0.228957
C     -5.182408    1.399544   -0.241428
C     -4.723596    1.089768    1.145911
C      2.798731   -1.013910   -1.430720
C      4.090903   -0.555173   -1.471627
C      2.363225    0.081673    0.609418
C     -1.547472   -0.842156    2.279948
C     -2.897938   -0.046675   -0.045708
C     -0.481679   -0.204531   -0.832120
C      1.921970   -0.709664   -0.405333
C     -3.449932    0.285146    1.103383
C     -2.804655   -0.094101    2.340087
C      4.517077    0.253710   -0.419287
C      3.653059    0.568391    0.615279
C     -1.035945   -1.162602    1.130803
C      0.559786   -1.274782   -0.493389
C     -1.698929   -0.807380   -0.198222
O     -3.295928    0.202326    3.470609
O      5.819248    0.713934   -0.463859
O      4.128989    1.372719    1.630004
O     -1.907033   -2.020741   -0.903288
O      0.108230   -1.821663    0.729577
H     -5.637239    2.903786   -1.641426
H     -5.065545    3.465421    0.067650
H     -1.487570    0.519874   -2.573039
H      0.301567    0.517404   -2.660328
H     -0.533680   -1.049645   -2.802377
H      6.298229    0.783733   -2.498998
H      6.801031   -0.704986   -1.647221
H      7.652951    0.903798   -1.317466
H      2.310402    2.005962    2.346585
H      3.315812    0.961105    3.496391
H      3.750897    2.680183    3.219798
H     -3.772714   -2.250415   -0.162639
H     -2.925699   -3.750186   -0.827332
H     -2.439757   -3.117113    0.770699
H     -5.423053    0.612120   -0.947166
H     -4.587355    1.994520    1.734633
H     -5.483421    0.418130    1.585273
H      2.461991   -1.652458   -2.261262
H      4.779671   -0.798856   -2.284708
H      1.671821    0.313790    1.405552
H     -1.092061   -1.099174    3.234289
H     -3.411455    0.295942   -0.934383
H     -0.198069    0.772051   -0.371065
H      0.466623   -2.060567   -1.253876
