38

C     -6.521480   -1.181579    0.621390
C      5.553146   -1.919004   -1.809544
C     -3.879770   -0.518461   -0.488473
C      4.195045    1.191815   -0.367182
C     -2.620785   -0.207314   -0.958918
C      3.025758    1.751227    0.087858
C     -3.075862   -0.532879    1.766724
C      3.122929   -0.851999   -0.899702
C      0.339929    0.809567    1.886693
C     -4.117579   -0.681413    0.849766
C      4.277290   -0.098444   -0.863768
C     -1.608974   -0.066087   -0.031758
C      1.880159    0.981821    0.044377
C     -1.825646   -0.226037    1.325224
C      1.933799   -0.303691   -0.444769
C     -0.258572    0.263002   -0.480746
C      0.462066    1.218114    0.441174
O      0.083349    2.537119    0.234106
O     -5.357056   -0.990782    1.349302
O      5.481856   -0.604510   -1.306269
O     -0.721733   -0.056210    2.147928
O      0.636225   -0.863815   -0.380014
H     -7.370262   -0.748021    1.215777
H     -6.553905   -0.710969   -0.363108
H     -6.751288   -2.262477    0.479388
H      6.513930   -2.007954   -2.376617
H      4.751425   -2.114952   -2.552593
H      5.537344   -2.640582   -0.963355
H     -4.688374   -0.634454   -1.191915
H      5.104797    1.797281   -0.334707
H     -2.476657   -0.087662   -2.020408
H      2.941413    2.750355    0.476764
H     -3.227767   -0.653976    2.825591
H      3.141615   -1.877855   -1.284656
H      1.266830    0.338836    2.284569
H      0.178800    1.748888    2.468897
H     -0.230015    0.640651   -1.503216
H      0.858020    3.145452    0.116192
