73

C      8.456582   -2.298206   -1.858290
C     -1.911187   -0.438121    3.556065
C     -1.758694    0.916433   -3.484687
C      6.432267    0.783257    1.509174
C      7.797381    0.956535    1.572736
C      6.748342   -0.829510   -0.190132
C     -0.509527    0.180331    1.232205
C     -0.531329    0.614743   -1.073343
C     -7.359907    0.154032   -2.263784
C      3.438871    1.696441   -0.609737
C      2.695250   -1.599869    0.306954
C      5.885559   -0.120527    0.618477
C      0.189178    0.485988    0.087436
C      3.786050    0.237573   -0.672213
C      2.405141   -0.427403   -0.581328
C      8.661454    0.249697    0.766240
C      8.127733   -0.664662   -0.136528
C     -1.900237    0.010038    1.200301
C     -1.920053    0.449177   -1.128790
C     -6.893230    0.531301   -0.863917
C     -6.834108   -0.747448   -0.058531
C     -6.574625   -0.426610    1.384377
C     -5.722014    0.807102    1.445169
C      4.432342   -0.278639    0.578242
C      1.631951    0.660938    0.130112
C     -2.584607    0.146399    0.023579
C     -4.888378    0.997082    0.199529
O     -7.529930    1.343060   -2.965880
O     10.036285    0.405485    0.810835
O     -8.078007   -1.364851   -0.157751
O     -5.984583   -1.518346    2.017669
O     -6.597804    1.910051    1.505816
O      8.986698   -1.379906   -0.951289
O     -2.624978   -0.298720    2.343822
O     -2.529453    0.603439   -2.349761
O      4.048378   -1.638744    0.537529
O      2.049902    1.795554   -0.592339
O     -5.710647    1.225952   -0.876286
O     -3.949458   -0.022383    0.001040
H      7.794696   -3.023634   -1.363558
H      9.287804   -2.883738   -2.326120
H      7.930462   -1.809856   -2.715833
H     -1.485521    0.569889    3.780942
H     -1.078801   -1.140444    3.447109
H     -2.638718   -0.761473    4.328849
H     -2.458680    0.902395   -4.356134
H     -1.198326    1.850895   -3.385657
H     -0.988548    0.106132   -3.645409
H      5.770183    1.360851    2.164484
H      8.219376    1.661881    2.268299
H      6.305447   -1.531927   -0.880877
H     -0.019618    0.061813    2.184956
H      0.021185    0.857831   -1.985908
H     -8.296672   -0.421486   -2.174682
H     -6.588935   -0.475566   -2.752008
H      3.905238    2.241736    0.215312
H      3.787164    2.165586   -1.554816
H      2.363089   -2.569480   -0.105442
H      2.195787   -1.504634    1.307177
H      4.340266   -0.068977   -1.553204
H      2.009638   -0.678000   -1.563806
H     -7.690467    1.163447   -0.422683
H     -6.090648   -1.460620   -0.471195
H     -7.568992   -0.273425    1.876382
H     -5.133629    0.827384    2.360900
H      3.965860    0.134291    1.492132
H      2.059160    0.764181    1.130526
H     -4.296563    1.942785    0.372670
H     -8.498122    1.408987   -3.182166
H     10.470157    1.054760    1.447247
H     -8.092431   -2.283479    0.172646
H     -5.577680   -1.234555    2.884232
H     -6.139769    2.632811    1.992913
