54

C     -0.720775    1.185479    0.612542
C      0.657178    1.404691    0.657711
C     -0.324463   -1.104154    0.256763
C      6.414126   -0.506538   -0.106664
C      5.647056    1.585312   -1.658907
C     -6.675231   -0.148955    2.423535
C      3.307566   -1.803480    0.017059
C      9.273154    1.104460   -1.652697
C     -1.233901   -0.069962    0.411726
C      1.537417    0.369346    0.502323
C      5.097870   -0.114155   -0.071092
C      3.860303   -0.558514    0.648151
C      1.052744   -0.880832    0.302578
C      4.717358    0.949621   -0.863097
C      7.363089    0.121238   -0.901152
C      6.976589    1.187647   -1.693755
C     -5.873186    0.065870    1.136491
C     -6.108113   -1.059038    0.159493
C     -5.278128   -0.776667   -1.066356
C     -4.372494    0.409896   -0.905541
C      2.977125    0.628859    0.553853
C     -3.678906    0.377210    0.461497
O     -6.368612   -1.340367    3.037545
O     -7.427080   -1.202587   -0.202005
O     -4.445608   -1.902272   -1.264374
O     -4.976955    1.619382   -1.151194
O      1.927852   -1.934058    0.144368
O      8.735705   -0.100314   -1.096690
O      8.123729    1.596271   -2.358438
O     -2.551828   -0.393754    0.350501
O      3.359472    1.201973   -0.697612
O     -4.541827    0.063832    1.479625
H     -1.393950    1.995262    0.734153
H      1.038187    2.395930    0.816108
H     -0.635508   -2.127336    0.093892
H      6.734405   -1.330238    0.499486
H      5.357391    2.418207   -2.281307
H     -7.744356   -0.215587    2.096239
H     -6.565042    0.742160    3.053295
H      3.525660   -1.721214   -1.088127
H      3.875558   -2.674173    0.397362
H      9.470541    1.841958   -0.837104
H     10.124350    0.927648   -2.308922
H      4.162423   -0.739230    1.710814
H     -6.232726    1.038900    0.731648
H     -5.788433   -2.001959    0.678936
H     -5.875685   -0.667033   -1.969549
H     -3.561408    0.295463   -1.682784
H      3.198701    1.322511    1.391783
H     -3.356201    1.448169    0.631054
H     -5.761088   -1.112987    3.810438
H     -7.866712   -1.871594    0.366644
H     -4.137186   -1.814747   -2.220791
H     -5.020148    1.874450   -2.089455
