40

C     -5.830322   -1.524395    0.069180
C     -0.770598    2.850920    0.919346
C      3.255001   -1.343141    1.345897
C      4.589876   -1.122466    1.498472
C     -1.567200   -1.268294   -0.365698
C     -2.928354   -1.359040   -0.216314
C      1.168684   -1.071231    0.092603
C      4.645727    0.227449   -0.443065
C      1.235868    1.107568   -1.206033
C      2.602642   -0.747263    0.251638
C      0.484361   -0.071201   -0.772977
C      5.308149   -0.340713    0.615880
C     -0.960470    0.013931   -0.439110
C     -3.708187   -0.259815   -0.136216
C      3.289663    0.036867   -0.640959
C     -3.098828    1.003234   -0.209567
C     -1.753138    1.102357   -0.352808
O      6.636622   -0.141600    0.800107
O     -3.912049    2.113969   -0.128156
O     -5.097433   -0.344071    0.006276
O     -1.147302    2.365950   -0.402557
O      2.538796    0.575079   -1.670719
H     -6.648385   -1.452376    0.819617
H     -6.341694   -1.619161   -0.943804
H     -5.290351   -2.462607    0.193598
H     -0.697211    1.968255    1.605550
H     -1.510794    3.526102    1.322847
H      0.230083    3.267072    0.857704
H      2.686749   -1.962999    2.037764
H      5.103363   -1.559263    2.335282
H     -0.977516   -2.161602   -0.435814
H     -3.363154   -2.360963   -0.170218
H      1.038345   -2.094853   -0.302651
H      0.664208   -0.987591    1.128443
H      5.171160    0.848121   -1.171550
H      1.496525    1.873868   -0.467462
H      0.777727    1.608476   -2.118446
H      0.400281   -0.673423   -1.832606
H      7.177540    0.431124    0.142572
H     -4.898384    2.007727   -0.016875
