38

C     -3.991080   -2.628946    1.124431
C     -4.835245    2.507149   -0.962100
C      5.193365   -0.327770   -0.260438
C      4.210088    0.253208    0.507331
C      3.572835   -1.466228   -1.522616
C     -1.848194   -0.967588    0.528408
C     -2.210416    1.542047   -0.489225
C      1.323062    1.819288    0.390647
C      4.904221   -1.197915   -1.290074
C      2.873783   -0.014436    0.275782
C     -0.738238   -0.164469    0.242787
C      1.603916    0.436825    0.899959
C     -0.927437    1.112391   -0.275046
C      2.567956   -0.874689   -0.740499
C     -3.133663   -0.522105    0.307872
C     -3.298362    0.744829   -0.205293
C      0.636714   -0.611506    0.464130
O      5.917669   -1.780980   -2.062563
O     -4.244861   -1.338905    0.598959
O     -4.555838    1.223731   -0.438379
O      0.220580    1.840527   -0.528984
O      1.171254   -1.013447   -0.811252
H     -4.922460   -3.156135    1.400122
H     -3.437811   -3.203298    0.333085
H     -3.281533   -2.581340    1.989302
H     -5.889824    2.599289   -1.274745
H     -4.147465    2.768542   -1.814109
H     -4.613342    3.241151   -0.160351
H      6.232516   -0.108853   -0.067369
H      4.435229    0.940957    1.321382
H      3.291027   -2.150337   -2.328386
H     -1.651460   -1.960612    0.932764
H     -2.339129    2.550936   -0.898054
H      2.205174    2.250158   -0.113750
H      1.040050    2.522288    1.199264
H      1.704992    0.504403    2.007387
H      0.701073   -1.457733    1.186079
H      6.260855   -1.330426   -2.908525
