52

C      5.827130   -0.367652   -2.992089
C      6.485178    0.485996   -0.812518
C     -3.998866   -3.086114    0.183305
C     -6.165035    1.330119   -2.564308
C     -2.995703   -0.550635    0.589101
C      3.382716    0.538446   -0.672567
C      2.430056   -2.261216    1.451891
C     -4.025082    1.617970   -0.730037
C     -0.963683    3.097431    0.531791
C      5.517898   -0.174867   -1.722606
C     -2.460721    0.700739    0.824498
C      2.485612   -0.197856    0.261252
C      1.202107   -1.932694    1.979734
C      4.214215   -0.620162   -1.229888
C     -2.977245    1.798544    0.160517
C      3.091475   -1.394998    0.581923
C     -4.046229   -0.715374   -0.307038
C     -4.566886    0.374833   -0.972936
C     -0.353685    1.952696    1.257953
C     -1.346341    0.930618    1.771310
C      0.616151   -0.714382    1.635648
C     -0.679574   -0.323819    2.168471
C      1.253171    0.148182    0.781851
O      0.546614   -2.780916    2.836171
O     -1.238017   -1.083647    2.989729
O     -4.540795   -2.001388   -0.500232
O     -5.612495    0.234016   -1.869135
O     -2.394986    3.023246    0.441940
O      4.307546   -1.459490   -0.087220
O      0.648115    1.343277    0.461771
H      5.162832   -0.843611   -3.702363
H      6.792449   -0.034104   -3.342833
H      6.494420   -0.007472    0.179841
H      7.523449    0.443795   -1.191152
H      6.256645    1.583225   -0.700525
H     -4.198613   -3.040979    1.268508
H     -4.352938   -4.067556   -0.190183
H     -2.874499   -3.135083    0.090167
H     -6.613394    2.054777   -1.854892
H     -5.355956    1.878509   -3.096194
H     -6.908570    0.949634   -3.288873
H     -2.586648   -1.392874    1.109504
H      2.835515    1.030058   -1.489280
H      4.023793    1.201367   -0.092368
H      2.906844   -3.185161    1.694034
H     -4.413048    2.503973   -1.237891
H     -0.751600    4.081418    0.998029
H     -0.567746    3.134114   -0.509173
H      3.606906   -1.157087   -1.966765
H      0.203694    2.388171    2.139793
H     -1.797532    1.370640    2.692712
H      0.971356   -3.666656    3.087059
