38

C      1.889777    3.535974   -1.348988
C      4.760164    0.003765    1.811656
C     -4.020361   -0.412170    1.242201
C     -3.154728   -1.385856    0.802086
C     -3.297777    0.988243   -0.506137
C      1.003446    0.817641   -1.168081
C      2.444273   -0.915737    0.406741
C     -0.542336   -2.880233   -0.069124
C     -4.113170    0.817537    0.587195
C     -2.350207   -1.181768   -0.298993
C      0.586623   -0.519075   -1.065225
C     -1.332937   -2.041032   -0.997626
C      1.316464   -1.378343   -0.272804
C     -2.422554    0.033564   -0.969647
C      2.119310    1.244424   -0.485994
C      2.856470    0.395328    0.308141
C     -0.588075   -1.017714   -1.781042
O     -4.994219    1.788537    1.047567
O      2.540714    2.563020   -0.579954
O      3.981874    0.823886    0.996405
O      0.873966   -2.690847   -0.194758
O     -1.520934    0.024888   -2.054874
H      2.602544    4.399529   -1.487106
H      1.613455    3.127854   -2.349905
H      1.002855    3.969916   -0.834484
H      4.212303   -0.131821    2.772133
H      5.743973    0.503188    1.981976
H      4.918649   -0.976167    1.318487
H     -4.630635   -0.607944    2.102999
H     -3.089709   -2.349470    1.324685
H     -3.360661    1.943808   -1.026299
H      0.410700    1.465538   -1.796097
H      2.996994   -1.628318    1.022364
H     -0.864074   -2.639904    0.975791
H     -0.734683   -3.963377   -0.201792
H     -1.893032   -2.747497   -1.683430
H     -0.265728   -1.455256   -2.754635
H     -4.698732    2.475888    1.737804
