53

C      2.536253    0.550823    1.601816
C     -2.335402    1.985363    1.433366
C      2.314213    1.852063    1.982778
C     -2.998420    3.016181    0.767005
C      2.150745    1.176877   -0.642483
C     -1.875411    0.925243   -0.618054
C     -2.142207   -2.177071    0.509333
C      3.600008   -1.230071   -1.364186
C      0.510806   -3.959770   -1.355343
C      2.453340    0.216616    0.284946
C     -1.774012    0.941187    0.749041
C      2.679100   -1.153080   -0.185382
C     -0.807313   -2.486407   -0.062428
C      2.007788    2.842272    1.075273
C     -3.095072    2.991838   -0.602350
C     -0.715293   -3.648401   -0.812372
C      1.928809    2.481984   -0.253741
C     -2.537550    1.952119   -1.302099
C     -2.078831   -1.249227    1.670045
C      1.618481   -3.124272   -1.150198
C      3.930020   -2.666112   -1.537780
C      1.511235   -1.981301   -0.406317
C     -1.080916   -0.130647    1.474092
C      0.257908   -1.650515    0.155645
O      1.787280    4.151020    1.482944
O     -3.766873    4.040856   -1.244246
O     -1.800574   -4.483258   -1.023415
O      1.619880    3.444607   -1.232122
O     -2.617988    1.901428   -2.663478
O     -3.357917   -0.738409    1.886222
O      5.092314   -3.069636   -1.497568
O      2.846170   -3.509823   -1.746082
O      0.120992   -0.509513    0.904832
H      2.778251   -0.194567    2.383670
H     -2.296752    2.070199    2.528194
H      2.375932    2.149084    3.048893
H     -3.435941    3.834565    1.333901
H      2.071947    0.958305   -1.717780
H     -1.437963    0.109938   -1.171798
H     -2.742135   -1.707590   -0.304789
H     -2.602556   -3.138186    0.830637
H      3.014049   -0.879846   -2.262579
H      4.500738   -0.593973   -1.258427
H      0.617142   -4.864604   -1.949253
H      3.263148   -1.660217    0.653913
H     -1.806260   -1.807820    2.591905
H     -0.837561    0.277672    2.508804
H      1.565712    4.842223    0.782694
H     -3.884199    4.102598   -2.241372
H     -1.775566   -5.322471   -1.553242
H      1.554404    3.221605   -2.199246
H     -3.056933    2.560513   -3.274649
H     -3.847016   -0.660391    1.010624
