47

C      7.073324    0.237656    2.036548
C     -0.052203   -1.590185   -2.367825
C     -1.038000   -1.349383   -1.269180
C      1.265417   -0.995900   -2.010372
C     -4.533927    1.580432    0.671961
C     -3.974899   -0.683358    0.631730
C     -3.385063    0.645799   -1.367821
C      3.139212    1.110978   -0.706487
C      3.201976   -0.753672    0.723409
C     -5.068452    1.428085    1.928227
C     -4.501769   -0.861226    1.884546
C     -1.933188    0.990827   -1.383342
C      4.411314    1.429514   -0.269652
C      4.474147   -0.432842    1.158566
C     -3.968104    0.528196   -0.020057
C      2.507728   -0.007097   -0.204343
C     -5.060215    0.208549    2.551196
C      5.092516    0.680625    0.652949
C     -1.030822    0.028367   -0.712586
C      1.168817   -0.445940   -0.588789
O     -5.605278    0.035686    3.841792
O      6.366138    0.988478    1.098625
O      0.243179    0.591167   -0.641860
H      7.936771    0.850771    2.393220
H      6.479870   -0.029829    2.939039
H      7.443088   -0.711913    1.602270
H     -0.431568   -1.071023   -3.288654
H      0.077280   -2.658779   -2.583226
H     -0.937969   -2.106090   -0.437365
H     -2.044958   -1.540109   -1.698488
H      2.120852   -1.698095   -2.081245
H      1.524151   -0.102546   -2.645072
H     -4.531778    2.543772    0.161637
H     -3.551207   -1.561784    0.160242
H     -3.919463    1.511840   -1.861774
H     -3.631021   -0.228048   -2.016542
H      2.617173    1.703497   -1.427344
H      2.762256   -1.657781    1.167029
H     -5.494470    2.272129    2.422270
H     -4.501759   -1.821501    2.388984
H     -1.825700    1.978071   -0.862335
H     -1.649760    1.190614   -2.440289
H      4.923125    2.316391   -0.662278
H      4.970491   -1.052697    1.886076
H     -1.372136   -0.048529    0.362967
H      0.833025   -1.229737    0.117903
H     -6.588137   -0.213381    3.912314
