36

C      2.462282   -1.932938   -0.323867
C      3.851533   -1.921768   -0.220933
C     -3.004555    0.726573   -0.693588
C     -2.908416   -0.966348    1.415446
C      0.191355    1.624992    0.014448
C     -6.280924    0.343609    0.892094
C      5.893562    1.015496    0.399312
C      1.715240   -0.787508   -0.176042
C     -1.764559    0.260956   -0.309194
C      4.477452   -0.724214    0.035867
C     -1.737874   -0.597598    0.763525
C     -4.178620    0.372620   -0.059954
C     -4.140835   -0.489715    1.016291
C      2.338962    0.410107    0.080606
C      3.722839    0.417756    0.182530
C      0.266099   -0.840638   -0.290770
C     -0.368823    0.448072   -0.756314
O     -0.261272    0.625494   -2.127014
O      1.566244    1.551311    0.225809
O      5.812016   -0.391933    0.191486
O     -5.516362    0.694188   -0.247801
O     -5.459395   -0.675513    1.462484
O      4.564903    1.490506    0.433018
O     -0.388714   -0.952850    0.989311
H      2.020413   -2.911656   -0.528671
H      4.442558   -2.825368   -0.337422
H     -3.016859    1.406223   -1.544671
H     -2.886860   -1.652021    2.272582
H     -0.300048    1.750752    1.003920
H     -0.016620    2.580778   -0.543258
H     -6.320391    1.242750    1.539307
H     -7.285573   -0.036302    0.625633
H      6.480346    1.482873   -0.414731
H      6.364185    1.206300    1.378865
H     -0.107730   -1.673533   -0.911411
H     -0.225558   -0.271453   -2.534650
