92

C     -1.655760   -1.234545   -4.796732
C      1.415569   -0.664821    4.652254
C     -1.456147   -2.299774   -3.945830
C     -1.252631    0.006564   -4.329680
C      1.547851   -1.556941    3.608561
C      0.799441    0.531819    4.422293
C      8.497340    0.537841    1.012963
C     -8.635806   -0.574843   -0.298286
C      9.102909    1.737083    0.301536
C     -8.856678    0.756220   -1.012721
C      4.121193    0.176437   -3.402310
C     -4.215475   -1.457683    2.637200
C     -0.888076   -2.132943   -2.704394
C     -0.684619    0.174723   -3.088266
C      1.061558   -1.229374    2.365122
C      0.313164    0.844199    3.152673
C      5.414957   -0.324117   -2.864984
C     -5.428271   -0.532797    2.728636
C      7.062419    0.454427    0.527491
C     -7.955231   -0.337047    0.993723
C      8.297159    2.136314   -0.899940
C     -7.438195    1.269661   -1.263241
C      2.951849   -0.035827   -2.484801
C     -2.986992   -0.638869    2.206155
C      4.592747    0.259397   -0.681765
C     -4.560661    0.288050    0.577167
C     -0.481150   -0.872782   -2.235028
C      0.435568   -0.033987    2.096763
C      5.635711    0.024238   -1.439232
C     -5.568684    0.152025    1.418161
C      7.035836    0.088420   -0.933327
C     -6.914372    0.714218    1.044438
C      0.137715   -0.833129   -0.909864
C     -0.097368    0.361631    0.801134
C      0.767057    0.372202   -0.390756
C     -0.890754   -0.761869    0.180721
C      2.224490    0.403878   -0.163026
C     -2.242065   -0.265855   -0.169984
N      7.859778    0.999988   -1.699203
N     -6.806195    1.608005   -0.043617
N      3.240831    0.213795   -1.094731
N     -3.241953   -0.212025    0.854894
O      2.561632    0.636515    1.051479
O     -2.605128    0.121948   -1.302780
H     -2.105006   -1.360565   -5.778360
H      1.812670   -0.957600    5.625103
H     -1.768417   -3.288352   -4.295150
H     -1.407725    0.839135   -4.996025
H      2.026660   -2.524171    3.725649
H      0.695124    1.224923    5.227708
H      9.001050   -0.409750    0.722358
H      8.450722    0.696604    2.111239
H     -9.643756   -0.997541   -0.115391
H     -8.115663   -1.299648   -0.960025
H     10.134692    1.528236    0.016904
H      9.086191    2.597274    1.004846
H     -9.373444    1.422026   -0.304873
H     -9.370527    0.641559   -1.968059
H      3.905466   -0.396957   -4.347302
H      4.197416    1.252665   -3.742396
H     -3.984848   -1.954544    3.577120
H     -4.416740   -2.140892    1.788714
H     -0.756545   -3.009730   -2.080682
H     -0.396824    1.154462   -2.785821
H      1.164933   -1.917005    1.567740
H     -0.162327    1.819661    3.063611
H      6.232147    0.227192   -3.421195
H      5.590994   -1.401822   -3.060042
H     -5.220650    0.177433    3.546056
H     -6.292737   -1.204296    2.946562
H      6.617434    1.447384    0.739793
H      6.560795   -0.306247    1.124238
H     -8.753779   -0.207425    1.784850
H     -7.482259   -1.321623    1.291663
H      7.411054    2.765976   -0.631496
H      8.935953    2.762121   -1.547231
H     -7.561893    2.204382   -1.864148
H     -6.886003    0.549040   -1.887410
H      2.570954   -1.062533   -2.578338
H      2.135779    0.647818   -2.856536
H     -2.121355   -1.276152    2.353399
H     -2.947283    0.247405    2.902571
H      4.853106    0.510848    0.369420
H     -4.689688    0.793291   -0.376043
H      7.447556   -0.939196   -1.016550
H     -7.169755    1.364787    1.942964
H      0.705195   -1.805808   -0.770298
H     -0.696242    1.324734    0.918202
H      0.532981    1.266285   -1.034124
H     -0.925749   -1.689608    0.825212
H      8.756382    0.514597   -1.996114
H     -6.790604    2.621253    0.194690
