27

C      2.756277   -0.112581   -0.814246
C     -1.587121   -1.658926    0.936325
C     -2.023078    1.237294   -0.521752
C     -0.514129    1.189521   -0.690923
C     -2.421819   -0.200910   -0.711382
C      0.830282   -0.335163    0.781077
C      2.086999    0.434843    0.424889
C     -0.122105   -0.231937   -0.367931
N     -1.309327   -0.997210   -0.264117
O      3.041576    0.331669    1.463757
H      3.872366   -0.173547   -0.692310
H      2.409046   -1.108682   -1.100722
H      2.607358    0.569484   -1.696347
H     -1.930918   -2.711734    0.712787
H     -2.460960   -1.190697    1.460619
H     -0.790980   -1.750970    1.670851
H     -2.494222    1.925750   -1.246491
H     -2.276400    1.623920    0.491748
H     -0.067518    1.888085    0.015145
H     -0.303679    1.461653   -1.739798
H     -3.335645   -0.363998   -0.089861
H     -2.644877   -0.401389   -1.787142
H      1.126537   -1.393108    0.881763
H      0.448344    0.098203    1.721382
H      1.918410    1.503666    0.277617
H      0.436859   -0.615662   -1.270547
H      2.748725    0.982428    2.155608
