28

C     -2.319810   -1.039711    0.108293
C     -0.899117   -1.547015   -0.217728
C      1.865604   -1.343557    0.117491
C      1.119852   -0.232162   -0.560256
C     -2.195615    0.491631    0.002838
C     -0.778562    0.582120    0.353910
C      1.414426    1.122978    0.077311
C      0.016278    1.760768    0.105636
N     -0.260735   -0.368992   -0.651685
O      3.229991   -0.991746    0.092906
O     -2.442453    0.797700   -1.333483
O      2.293964    1.877906   -0.651650
O     -0.031101    2.616380    1.227860
H     -3.050609   -1.429164   -0.600110
H     -2.570473   -1.236918    1.171181
H     -0.442038   -1.946963    0.705724
H     -0.972280   -2.338539   -0.997841
H      1.519549   -1.576515    1.124032
H      1.766207   -2.239700   -0.527544
H      1.550402   -0.154876   -1.603005
H     -2.907679    0.994261    0.672809
H     -0.585712    0.140050    1.338963
H      1.731408    0.969494    1.136168
H     -0.180757    2.295923   -0.816499
H      3.796663   -1.746192   -0.171046
H     -2.877838    0.059147   -1.827751
H      3.136690    1.954700   -0.130266
H     -0.926256    2.528990    1.642698
