84

C      5.392777   -0.678919    1.786352
C     -6.321903    1.542142    1.596843
C      1.241050    4.930041   -0.137594
C     -0.813568   -4.211716   -0.120552
C      2.079558    3.840529   -0.777406
C     -1.794883   -3.053971   -0.344967
C      0.487557   -3.914855   -0.834171
C     -0.220134    4.784953   -0.418865
C      2.840323    3.057194    0.266467
C     -3.198414   -3.438009   -0.012127
C      1.564738   -4.778158   -0.226566
C     -0.786848    3.630233    0.387532
C      4.244275    2.743790   -0.124610
C     -3.776893   -2.384653    0.896919
C      2.948346   -4.181411   -0.403020
C     -2.225769    3.353779    0.001119
C      3.138005    0.534525   -0.527451
C     -4.549156   -1.005391   -1.054883
C      3.451515   -0.783135   -1.248748
C     -3.784577    0.290849   -0.920125
C      5.467646   -0.649775    0.250512
C     -5.735860    0.633928    0.515817
C      4.412375    1.332352   -0.666366
C     -4.904739   -1.614256    0.264093
C      4.420232   -1.513600   -0.352974
C     -4.495933    1.299679   -0.059650
C      3.299820   -3.392020    0.794135
C     -2.932357    2.764557    1.163933
N      5.547631    0.683264   -0.156301
N     -5.284504   -0.566042    1.198829
O      3.261555   -3.959200    1.906153
O     -2.845549    3.357777    2.266123
O      3.653900   -2.089140    0.689665
O     -3.654227    1.611057    1.033528
H      5.893222   -1.620715    2.155960
H      4.363168   -0.654784    2.143865
H      6.030772    0.148073    2.149613
H     -5.566782    1.754075    2.373964
H     -6.596583    2.522472    1.134515
H     -7.247169    1.089565    1.978051
H      1.601501    5.897572   -0.586261
H      1.454440    4.982763    0.947964
H     -0.575040   -4.251371    0.964190
H     -1.216069   -5.164625   -0.511696
H      2.781557    4.217224   -1.529459
H      1.349744    3.188948   -1.338261
H     -1.409018   -2.213565    0.276199
H     -1.696631   -2.708012   -1.400952
H      0.446051   -4.155749   -1.914865
H      0.800404   -2.867355   -0.716859
H     -0.365106    4.654998   -1.499115
H     -0.713064    5.738778   -0.124909
H      2.228115    2.206111    0.557681
H      2.894615    3.730499    1.171279
H     -3.829442   -3.630314   -0.901960
H     -3.167464   -4.384663    0.566321
H      1.358259   -4.918751    0.853288
H      1.551899   -5.773991   -0.708343
H     -0.187092    2.733664    0.211768
H     -0.806811    3.966601    1.445460
H      4.602133    3.512982   -0.827271
H      4.927470    2.810933    0.771817
H     -4.170920   -2.806895    1.849864
H     -3.008081   -1.624021    1.202625
H      3.696019   -5.026023   -0.460009
H      3.034516   -3.641102   -1.345616
H     -2.299124    2.728421   -0.901791
H     -2.692832    4.361772   -0.174471
H      2.314893    1.005058   -1.095513
H      2.882255    0.274866    0.501399
H     -3.986523   -1.653151   -1.728513
H     -5.510078   -0.749762   -1.573594
H      2.500544   -1.301407   -1.362068
H      3.930674   -0.489420   -2.207915
H     -2.728885    0.135242   -0.615291
H     -3.732177    0.729993   -1.951957
H      6.463468   -1.142711    0.029157
H     -6.500947    0.433511   -0.237325
H      4.558783    1.469747   -1.779682
H     -5.806507   -2.269149    0.160338
H      4.845613   -2.349550   -0.974778
H     -4.841533    2.185548   -0.612273
H      6.436828    1.026569   -0.536697
H     -4.419050   -0.285294    1.729268
