35

C     -2.832103    2.555551   -0.247896
C      3.477310   -0.474248   -0.257598
C      3.599917    0.962939    0.136351
C     -2.058132   -2.228234    0.541940
C     -0.743185   -1.983570   -0.195647
C      2.009646   -0.739311   -0.582914
C      2.740908    1.211350    1.372860
C     -3.069534   -1.284892   -0.031468
C     -1.179334    0.302104    0.363823
C     -3.374158    1.174272   -0.293692
C     -0.259988   -0.645392    0.286061
C      1.167910   -0.447902    0.640915
N      1.346049    0.915587    1.098717
N     -2.545959    0.066299    0.011398
O     -4.574520    0.963981   -0.603195
H     -2.333251    2.726685    0.743075
H     -2.128621    2.677538   -1.077569
H     -3.639135    3.309367   -0.332488
H      3.771436   -1.167297    0.541200
H      4.040892   -0.639930   -1.200115
H      4.637499    1.177613    0.435768
H      3.245205    1.603468   -0.681094
H     -2.322467   -3.280045    0.438201
H     -1.869205   -1.944045    1.610984
H     -0.070587   -2.797125    0.094657
H     -0.892799   -1.921500   -1.281370
H      1.709624   -0.049276   -1.390751
H      1.910470   -1.789813   -0.849220
H      3.137152    0.695505    2.246816
H      2.806792    2.301830    1.573342
H     -3.295334   -1.573109   -1.080361
H     -4.007544   -1.343595    0.564027
H     -0.902354    1.274066    0.698667
H      1.421013   -1.160512    1.443300
H      1.076389    1.551642    0.308862
