39

C      0.218159    4.920565   -0.268778
C      2.239922   -1.281628   -0.988086
C      3.449255   -1.781780   -0.575577
C      2.202742    0.301809    0.758921
C     -4.013173   -2.122530    0.385204
C     -1.990221   -2.706859   -0.757645
C      0.064588    3.543914    0.317620
C      1.576306   -0.228270   -0.340238
C     -3.198075   -3.041449   -0.207553
C      4.031089   -1.202514    0.543073
C      3.431921   -0.169432    1.219931
C     -3.648489   -0.776849    0.460057
C     -1.626792   -1.365860   -0.683327
C     -2.449802   -0.423965   -0.082168
C     -1.954069    0.939407   -0.075867
C      0.270436    0.232661   -0.880371
C     -0.472118    1.187119   -0.018803
O      0.283255    3.378702    1.535119
O     -3.567144   -4.383173   -0.279346
O      5.252643   -1.677076    0.994228
O      4.043343    0.385580    2.335173
O     -4.460712    0.143712    1.053249
O     -2.760887    1.869196   -0.117336
O     -0.312413    2.513415   -0.511247
O     -0.445923   -0.945843   -1.203660
H      1.204368    5.035845   -0.724251
H     -0.579673    5.046798   -1.040913
H      0.031013    5.643879    0.543236
H      1.755825   -1.713328   -1.862441
H      3.922538   -2.598159   -1.110705
H      1.748071    1.105897    1.290909
H     -4.972055   -2.382689    0.822928
H     -1.320221   -3.411737   -1.234981
H      0.422351    0.744975   -1.880466
H     -0.220743    1.178178    1.049032
H     -4.444291   -4.695102    0.106782
H      5.717809   -2.435518    0.517660
H      4.929288    0.066887    2.690971
H     -4.358122    1.105223    1.198958
