38

C      3.535583    0.016214    0.802279
C      1.960622    1.764234    1.323461
C     -2.308364    3.456443   -0.435586
C     -1.327564   -2.923699   -1.120332
C      0.738951   -2.306603    0.136005
C      1.465062   -1.372068   -0.843083
C     -0.575463    1.658195   -0.388215
C     -2.810391    1.013498   -0.134748
C      2.035503    0.303340    0.928657
C     -1.895174    2.025215   -0.317911
C     -0.743123   -2.119836    0.018401
C      1.324092    0.055068   -0.371398
C     -0.137327    0.323784   -0.282712
C     -2.409077   -0.292895   -0.029435
C     -1.051336   -0.675856   -0.101271
O     -3.358304   -1.311484    0.157212
H      3.766750   -1.042047    0.843667
H      3.892422    0.482171   -0.133206
H      4.001373    0.504731    1.683514
H      2.337189    2.401850    0.499438
H      2.700853    1.880422    2.170913
H      0.969845    2.064634    1.695704
H     -3.302140    3.634246    0.015271
H     -1.598859    4.103360    0.152253
H     -2.348057    3.780983   -1.481520
H     -2.293410   -3.362344   -0.821658
H     -0.640111   -3.769035   -1.331254
H     -1.468474   -2.276832   -1.997700
H      1.053123   -3.328300   -0.165148
H      1.027927   -2.142125    1.173117
H      2.492886   -1.689025   -1.010880
H      0.897991   -1.453756   -1.794110
H      0.181506    2.412446   -0.533933
H     -3.853268    1.309448   -0.079717
H      1.566345   -0.265154    1.730765
H     -1.244014   -2.482449    0.969294
H      1.743257    0.730929   -1.141940
H     -4.326823   -1.107702    0.215804
