34

C     -4.570574    0.487346   -1.261791
C      4.559764   -0.086017   -1.235468
C      4.073369    1.085369   -0.661721
C      4.026875   -1.327420   -0.955242
C      2.999950    0.959259    0.230377
C      2.956703   -1.391509   -0.057331
C     -1.825468   -1.764833   -0.005578
C      0.735917    0.918793    1.927930
C     -3.303894    0.024209   -0.674972
C      2.450257   -0.255578    0.528516
C     -3.012282   -1.303821   -0.555092
C     -0.127821    1.423592    0.814053
C      1.329590   -0.363111    1.463026
C     -0.887083   -0.836930    0.444705
C     -1.163551    0.518206    0.331828
C     -2.348391    0.940413   -0.216566
O     -3.931110   -2.265690   -0.996961
O     -0.027458    2.535332    0.281476
O     -2.622936    2.268240   -0.326972
O      0.308159   -1.216852    0.999607
H     -4.963894    1.407281   -0.738784
H     -4.476655    0.783197   -2.325191
H     -5.378899   -0.267345   -1.142842
H      5.392165    0.009197   -1.927629
H      4.489061    2.059433   -0.879533
H      4.434736   -2.213375   -1.423070
H      2.590058    1.834669    0.698205
H      2.539553   -2.362863    0.162089
H     -1.605976   -2.823798    0.084146
H      1.425366    1.656915    2.327585
H      0.064595    0.654606    2.803387
H      1.737124   -0.875351    2.386143
H     -3.755580   -3.247916   -0.927072
H     -2.111672    3.036352   -0.064714
