41

C      3.585259    1.156005    0.944115
C     -2.489129   -1.036358    1.479724
C     -1.766524    1.759894   -1.198359
C     -1.220491   -1.566838    0.844840
C     -0.612107    0.970591   -1.675309
C     -2.301270    0.448757    1.832783
C     -1.761516    2.119092    0.281837
C      2.501438   -0.187174   -0.759214
C      1.256763    0.570719    1.247787
C      1.063639   -2.149608   -1.233879
C      2.540635    0.058767    0.705556
C      1.189924   -0.633648   -1.301626
C     -1.041390   -1.179388   -0.591501
C     -0.385387   -2.351879   -1.262006
C      0.091528    0.553222    0.654190
C     -0.024772   -0.048295   -0.761458
N     -1.218162    0.967877    1.004265
O     -0.983069   -3.283052   -1.731819
H      3.958199    1.143602    1.983096
H      3.047004    2.115838    0.802398
H      4.380563    1.121588    0.180137
H     -3.378985   -1.181878    0.864848
H     -2.631867   -1.571665    2.433996
H     -2.743872    1.324291   -1.494137
H     -1.735540    2.756903   -1.730639
H     -1.284245   -2.681726    0.903855
H     -0.367029   -1.263240    1.483796
H     -0.977752    0.388559   -2.579439
H      0.191874    1.620823   -2.120921
H     -2.170934    0.567452    2.913673
H     -3.271470    0.914749    1.603702
H     -1.315293    3.079292    0.499479
H     -2.860318    2.277476    0.518967
H      3.238148   -1.018740   -0.969611
H      2.898599    0.673401   -1.349461
H      1.375502    1.002177    2.257904
H      1.560380   -2.565059   -0.339864
H      1.516817   -2.634156   -2.116178
H      2.879230   -0.848673    1.279125
H      1.261273   -0.432819   -2.423955
H     -1.995652   -0.956879   -1.080697
