26

C     -2.643988   -1.443160   -0.623094
C     -2.889280    0.812275    0.598132
C      3.540784    0.399175    0.248718
C     -0.048298    1.213523    0.312304
C      1.173078    0.742213    1.071900
C     -2.029282   -0.202832   -0.082245
C     -0.737432   -0.010031   -0.206828
C      0.127675   -0.976676   -0.862653
C      1.589390   -0.860520   -0.750041
C      2.114586   -0.062577    0.242904
O     -0.354469   -1.918684   -1.530430
O      2.059640   -1.512517    0.461385
H     -2.635855   -1.469048   -1.739107
H     -2.201144   -2.359360   -0.171770
H     -3.742878   -1.458275   -0.359430
H     -3.923523    0.421427    0.684634
H     -2.957226    1.744190   -0.007038
H     -2.546265    1.031806    1.624333
H      4.068766    0.235581   -0.709355
H      3.612452    1.470354    0.529719
H      4.098590   -0.170128    1.022300
H      0.310210    1.835195   -0.523870
H     -0.674520    1.820953    0.955466
H      1.660941    1.680167    1.469503
H      0.883754    0.177075    1.995307
H      2.144293   -1.140126   -1.670371
