26

C     -2.324277   -0.077091    1.591118
C     -2.483151    0.643721   -0.726494
C      3.609739    0.497399    0.061314
C      1.795142   -0.867830    0.881951
C      1.626790    0.339825   -1.335483
C      0.485623   -0.932639    1.024230
C      0.241366   -0.263390   -1.264881
C     -1.782913   -0.317360    0.213112
C      2.414342    0.018546   -0.120903
C     -0.303253   -0.066572    0.120391
H     -3.426839   -0.033885    1.550273
H     -1.925652    0.923385    1.921809
H     -2.049969   -0.837683    2.324056
H     -1.981453    1.644429   -0.693203
H     -3.561695    0.776152   -0.418777
H     -2.481477    0.308097   -1.762532
H      4.166850    0.244925    0.963815
H      4.044248    1.142340   -0.681837
H      2.427779   -1.482848    1.519888
H      1.498951    1.448781   -1.416341
H      2.172104   -0.008215   -2.256675
H      0.045135   -1.581942    1.758152
H      0.309752   -1.357866   -1.496325
H     -0.397788    0.192362   -2.047194
H     -2.017013   -1.351680   -0.113087
H     -0.102344    0.999039    0.403620
