28

C      2.687770    0.189070    0.635301
C     -2.663192   -1.043803    0.745342
C      1.257849   -1.603407   -0.170917
C     -0.151325   -1.696065   -0.695168
C     -1.994416    1.241754    0.488347
C      1.261822   -0.219484    0.467217
C     -1.781125   -0.019230    0.144209
C     -0.694345   -0.300227   -0.799934
C      0.526790    0.571042   -0.589216
C      0.213444    1.966991   -0.197087
O      0.674403    2.821839   -1.210630
O     -1.178764    2.222374   -0.063121
H      3.209713   -0.664212    1.161072
H      2.768255    1.045472    1.332249
H      3.199001    0.335232   -0.319331
H     -2.288034   -1.261066    1.770854
H     -3.674996   -0.606994    0.872117
H     -2.765698   -1.948228    0.136605
H      1.513368   -2.387899    0.556621
H      2.005615   -1.544474   -1.003899
H     -0.720561   -2.346416   -0.014166
H     -0.136243   -2.202505   -1.691615
H     -2.798180    1.498750    1.192957
H      0.728728   -0.213949    1.423635
H     -1.053348   -0.083870   -1.846028
H      1.149129    0.524142   -1.510518
H      0.724256    2.306221    0.738786
H     -0.019915    3.418941   -1.553683
