26

C     -2.631311    1.331286    0.491035
C     -3.060109   -0.968484   -0.197831
C      3.582272   -0.261282    0.037586
C     -0.071918   -0.604518   -0.922760
C      0.037463    1.104913    0.802821
C     -2.152808    0.141081    0.232904
C     -0.719149   -0.125012    0.361231
C      1.272131   -1.090036   -0.560432
C      1.509824    0.861883    0.933097
C      2.084530   -0.275837    0.360815
O      1.686457   -2.124849   -1.009900
O      1.803530   -0.296832    1.724004
H     -1.979680    2.149766    0.806318
H     -3.687969    1.511412    0.391812
H     -4.059908   -0.848082    0.300620
H     -2.682350   -1.958914    0.165761
H     -3.239937   -0.963213   -1.278004
H      3.973489   -1.272549   -0.119942
H      4.106009    0.223344    0.878122
H      3.702844    0.384880   -0.870768
H      0.082901    0.266631   -1.621446
H     -0.686595   -1.365790   -1.440725
H     -0.341435    1.438757    1.790418
H     -0.123035    1.883726    0.010379
H     -0.503853   -0.911801    1.141490
H      2.098607    1.769519    1.156432
