28

C      2.990320    0.310385    0.470365
C     -3.141701   -0.581091    0.272878
C      1.339798   -1.584377    0.482614
C     -0.118662   -1.678871    0.013636
C     -1.926614    0.811405   -1.270984
C      1.733063   -0.248305   -0.113416
C     -1.870757    0.009118   -0.226570
C     -0.626836   -0.314374    0.444778
C      0.507238    0.607717    0.223998
C      0.323086    1.623764   -0.853040
O      0.099619    2.902453   -0.326042
O     -0.748336    1.349744   -1.722613
H      2.804058    1.063077    1.242210
H      3.599695    0.779278   -0.356819
H      3.590770   -0.559734    0.849871
H     -3.937373   -0.482340   -0.472901
H     -3.474863   -0.074202    1.201886
H     -2.978279   -1.660470    0.489460
H      1.335404   -1.533784    1.594081
H      1.930081   -2.419603    0.080609
H     -0.648707   -2.500147    0.528660
H     -0.107861   -1.789372   -1.087720
H     -2.892449    1.030562   -1.751128
H      1.780675   -0.378764   -1.220390
H     -0.847729   -0.416564    1.546037
H      0.755420    1.132336    1.169894
H      1.241529    1.701109   -1.471084
H     -0.710592    2.901052    0.261729
