41

C     -3.325480    0.982033    0.128883
C      2.792159   -0.275931    1.277857
C      0.824798    1.649775   -1.931141
C      1.523181   -1.090035    1.226521
C      0.150629    0.355761   -1.830771
C      2.473618    1.230851    1.209367
C      1.631595    2.157792   -0.773358
C     -2.088726   -1.110270    0.751654
C     -1.097232    1.040104    1.209287
C     -0.933664   -2.446203   -0.977221
C     -2.398190    0.332312    1.120148
C     -1.358837   -1.049398   -0.547713
C      0.990850   -1.311706   -0.161099
C      0.311385   -2.634026   -0.193697
C     -0.025851    0.825006    0.523415
C     -0.085398   -0.297514   -0.523058
N      1.273842    1.357615    0.444359
O      0.655059   -3.682803    0.298977
H     -4.174307    1.447007    0.671479
H     -3.773046    0.260837   -0.587007
H     -2.832304    1.808168   -0.431687
H      3.473455   -0.508234    0.437554
H      3.312395   -0.450648    2.233444
H      1.459200    1.667840   -2.854989
H      0.040061    2.434288   -2.135758
H      0.774585   -0.631790    1.898728
H      1.760855   -2.086950    1.656029
H     -0.848686    0.381749   -2.371092
H      0.705382   -0.417437   -2.455138
H      2.527355    1.706079    2.188973
H      3.367909    1.671503    0.664066
H      1.393301    3.189829   -0.499365
H      2.681818    2.097390   -1.010413
H     -1.449834   -1.509213    1.561568
H     -2.992995   -1.718597    0.638498
H     -1.110736    1.848615    1.963209
H     -1.741928   -3.125886   -0.686846
H     -0.746600   -2.471288   -2.065733
H     -2.878518    0.302994    2.119113
H     -2.084090   -0.624018   -1.312232
H      1.822989   -1.305601   -0.874811
