30

C     -3.035221   -0.017844    0.613294
C      2.404831    1.419893   -0.255842
C     -1.639666    0.686532   -1.262580
C     -0.118899    0.882636   -1.186849
C      2.107257   -0.753090    0.842260
C     -1.877938   -0.461111   -0.292279
C      1.534041    0.607440    0.686894
C      0.117471    0.671417    0.271621
C     -0.671474   -0.577153    0.565643
C      0.142802   -1.810631    0.353750
O      0.679233   -1.940660   -0.897437
O      1.218604   -1.717507    1.261941
H     -3.816126    0.504919    0.066368
H     -3.364645   -0.861041    1.232590
H     -2.569290    0.719477    1.328782
H      3.290547    1.810116    0.318221
H      1.870037    2.303371   -0.628581
H      2.761055    0.749389   -1.042962
H     -1.981154    0.476601   -2.273336
H     -2.064420    1.645124   -0.859411
H      0.358139    0.170330   -1.848492
H      0.091705    1.903011   -1.544946
H      2.924632   -0.714300    1.617929
H      2.592050   -1.087390   -0.085781
H     -2.141148   -1.354055   -0.867901
H      1.622395    1.125123    1.686927
H     -0.419171    1.508675    0.809179
H     -0.915468   -0.537009    1.666795
H     -0.477373   -2.700642    0.587410
H      1.377194   -2.651621   -0.863206
