59

C      5.370074    0.615591   -2.194785
C      6.219773   -1.037160   -0.707926
C      6.612275    0.879891   -2.712266
C      7.483045   -0.771108   -1.231474
C      0.818617   -1.295725    2.972457
C      0.358388   -2.272696    2.210105
C      2.120357    0.805989    1.500158
C     -4.734324    2.979170   -0.565051
C      1.405307   -0.005920   -0.758560
C      5.163650   -0.326764   -1.206804
C      1.187243    0.368302    0.671101
C      7.688348    0.166366   -2.214370
C      0.321155    0.110783    2.827667
C      1.518542    1.077995    2.864543
C     -4.330324    1.544582   -0.677279
C     -0.099312    0.323126    1.394416
C     -5.530096    0.635484   -0.930051
C     -5.136189   -0.801920   -0.992193
C     -4.264253   -1.202970    0.179361
C      3.812040   -0.559612   -0.699483
C     -1.027229   -0.743383    0.875442
C     -3.142420   -0.207054    0.283057
O     -5.469373    3.262914    0.574829
O      8.934208    0.433200   -2.735222
O      0.985307    2.359175    2.889642
O     -6.156181    0.959571   -2.132556
O     -6.243917   -1.601054   -1.136966
O     -3.742946   -2.462141   -0.119177
O      3.626629   -1.420432    0.203055
O     -0.593704   -2.035633    1.255827
O      2.716804    0.135790   -1.176873
O     -3.549350    1.097989    0.361211
O     -2.297964   -0.456401    1.351840
H      4.513783    1.176394   -2.583948
H      6.108883   -1.793780    0.074311
H      6.699234    1.624107   -3.477102
H      8.344126   -1.324378   -0.850682
H      1.566043   -1.477047    3.722453
H      0.739070   -3.271791    2.342259
H      3.181294    0.981503    1.307169
H     -3.813601    3.588633   -0.518064
H     -5.257985    3.261297   -1.500503
H      0.757311    0.609163   -1.408489
H      1.089888   -1.073612   -0.940761
H     -0.437221    0.373851    3.563425
H      2.209165    0.851767    3.674029
H     -3.703616    1.468569   -1.593708
H     -0.602089    1.294586    1.262893
H     -6.269504    0.838428   -0.120364
H     -4.500760   -0.933732   -1.905493
H     -4.842387   -1.318401    1.118385
H     -0.992888   -0.705009   -0.214314
H     -2.548917   -0.310525   -0.645351
H     -5.608661    2.382253    1.041367
H      9.243410   -0.100855   -3.542344
H      0.195485    2.444392    3.478516
H     -5.660234    0.445082   -2.843205
H     -6.847076   -1.605927   -0.368066
H     -3.586936   -2.998168    0.703913
