38

C      2.957762    1.898542   -0.316273
C      4.018483   -0.411171   -0.229033
C     -2.051021    2.164306    0.627105
C     -0.755436   -0.287595    1.685836
C      1.413247   -1.577015   -0.116667
C      0.246044   -1.953928   -1.013659
C     -3.303348    0.001363    0.375063
C     -2.142419   -1.761648   -0.981919
C      0.379150    0.776670   -0.206227
C      2.775754    0.421527   -0.241791
C     -2.110333    0.805663   -0.019176
C      1.567459   -0.097549   -0.190619
C     -0.983162   -1.242432   -0.601063
C     -3.417675   -1.125604   -0.619924
C     -0.870651   -0.002844    0.205225
O     -4.507931   -1.477999   -1.088119
H      1.993300    2.419803   -0.490339
H      3.439234    2.211416    0.630991
H      3.598892    2.157788   -1.191432
H      3.826074   -1.210058    0.542794
H      4.213938   -0.911499   -1.175966
H      4.892117    0.189179    0.090469
H     -1.801971    2.150273    1.685960
H     -2.999625    2.675704    0.442840
H     -1.235221    2.731416    0.098257
H     -1.548265    0.215792    2.281654
H      0.211298    0.093184    2.109939
H     -0.886696   -1.372568    1.834776
H      1.268013   -1.952566    0.900213
H      2.321986   -2.077824   -0.526418
H      0.524507   -1.723515   -2.050996
H      0.096968   -3.035990   -0.899598
H     -4.234294    0.614286    0.368579
H     -3.228434   -0.486345    1.358912
H     -2.194763   -2.665273   -1.568513
H      0.498611    1.559650    0.598774
H      0.226578    1.291233   -1.180446
H     -2.198169    0.995629   -1.129209
