28

C      2.655056    1.253396   -0.050460
C     -2.781818   -0.319099   -0.196284
C      0.581065    1.036341   -1.441875
C     -0.395584   -0.122346   -1.628265
C     -1.589341   -0.646262    1.905155
C      1.309677   -1.076936    1.510984
C      1.200897    0.849721   -0.072180
C     -1.468738   -0.153877    0.538354
C     -0.410155   -0.825442   -0.282690
C      0.986723   -0.603339    0.163748
O     -2.208558   -1.655712    2.185718
O      2.424842   -0.831172    1.947168
H      3.282584    0.586009   -0.676101
H      2.760017    2.289617   -0.435928
H      2.977660    1.265968    1.007974
H     -2.991037    0.588094   -0.776285
H     -3.576414   -0.418251    0.592259
H     -2.782073   -1.241122   -0.818881
H      0.080247    2.011448   -1.563115
H      1.372898    0.948473   -2.212152
H      0.037734   -0.859279   -2.362150
H     -1.364199    0.256035   -1.945488
H     -1.122374   -0.117521    2.724079
H      0.657438   -1.629273    2.171799
H      0.675119    1.513973    0.625165
H     -1.280117    0.956197    0.591446
H     -0.679751   -1.898688   -0.399941
H      1.648200   -1.156952   -0.558450
