30

C      4.984658    0.208086    0.496840
C     -1.883148    1.344589   -0.744852
C     -0.496589    1.017716   -1.180786
C     -3.537009    0.555148    0.949723
C      1.230513   -1.542808   -0.575676
C     -2.225123    0.533918    0.250519
C      0.076666    0.452072    0.101296
C      1.299582   -0.311297   -0.079319
C     -1.106729   -0.397784    0.566130
C      2.579017    0.272224    0.280969
C     -1.190861   -1.671873   -0.216994
O     -4.387902    1.516569    0.459197
O      2.627637    1.434083    0.747603
O     -1.550634   -2.742146    0.617003
O      3.783462   -0.433294    0.121429
O     -0.023865   -2.018837   -0.890773
H      5.822948   -0.478205    0.621271
H      5.248795    0.972499   -0.252443
H      4.805073    0.724549    1.478351
H     -2.463152    2.137683   -1.216302
H     -0.595007    0.233252   -1.963892
H      0.061252    1.905581   -1.532042
H     -3.409270    0.753071    2.054231
H     -4.039866   -0.433776    0.807481
H      2.125935   -2.135206   -0.721230
H      0.161584    1.274608    0.829386
H     -1.037811   -0.611534    1.651757
H     -2.010597   -1.609805   -0.979673
H     -4.062108    2.439068    0.585815
H     -0.787450   -3.388152    0.716333
