38

C      3.671044    1.486649   -0.348059
C      3.264925   -0.041168    1.474473
C     -0.942017   -1.278105    2.160189
C     -0.975631    1.634025   -1.911471
C      1.341426   -1.143621   -0.673538
C     -0.126844   -1.155283   -1.044205
C     -2.895160   -0.987764    0.751943
C     -2.778151    0.013765   -1.541661
C      0.377217    0.668667    0.470124
C      2.849626    0.622414    0.213883
C     -1.580475   -0.799061    0.906733
C     -1.670326    0.809610   -0.875071
C      1.560996    0.341705   -0.413574
C     -3.601197   -0.550160   -0.443887
C     -0.758374   -0.129645   -0.134591
O     -4.842293   -0.656244   -0.515225
H      4.628635    1.705686    0.103540
H      3.417228    1.992278   -1.258958
H      4.157874    0.462576    1.927867
H      2.463638    0.041280    2.253167
H      3.563240   -1.098069    1.325169
H     -1.590337   -1.989813    2.708397
H      0.014733   -1.803329    1.984383
H     -0.797726   -0.412824    2.860695
H     -1.787807    2.212893   -2.444088
H     -0.492358    1.035954   -2.710039
H     -0.314051    2.411838   -1.482596
H      1.591889   -1.773136    0.177584
H      1.964263   -1.417457   -1.561408
H     -0.578031   -2.159932   -0.926537
H     -0.201058   -0.889302   -2.102440
H     -3.435250   -1.486324    1.557614
H     -2.279750   -0.816792   -2.107606
H     -3.355689    0.676402   -2.208810
H      0.195505    1.765916    0.401369
H      0.585455    0.387557    1.509374
H     -2.137651    1.481967   -0.150018
H      1.492482    0.836846   -1.377802
