35

C     -1.819583    0.613087    1.174224
C      4.467458   -0.264043    0.360579
C      3.419894   -1.137048    0.497488
C     -3.059715    0.866869    1.724554
C     -2.803467    0.509467   -0.965849
C      2.985392    1.499204   -0.178665
C     -1.665458    0.428237   -0.189525
C      4.273234    1.065368    0.021431
C      2.140432   -0.699738    0.297160
C     -4.177791    0.941199    0.915568
C     -4.056612    0.761473   -0.447224
C      1.924652    0.620027   -0.041234
C      0.949070   -1.575412    0.424894
C      0.043455   -1.290769   -0.729667
C     -0.318160    0.151861   -0.792919
O      5.354646    1.936970   -0.112652
O     -5.437878    1.195142    1.441634
O     -5.193331    0.840550   -1.240084
O      1.384057   -2.894023    0.437182
O      0.668706   -1.674551   -1.924521
O      0.614399    1.025385   -0.236001
H     -0.955012    0.556400    1.806484
H      5.490847   -0.592555    0.515613
H      3.557127   -2.186704    0.764096
H     -3.188339    1.013233    2.795875
H     -2.702250    0.368823   -2.024107
H      2.817663    2.529119   -0.442396
H      0.472965   -1.370352    1.384934
H     -0.858236   -1.956945   -0.632919
H     -0.423620    0.442749   -1.879646
H      5.670325    2.446214    0.680722
H     -6.244996    1.250053    0.868239
H     -5.076595    0.704684   -2.237995
H      0.670553   -3.550186    0.426688
H      1.076167   -2.573791   -1.860737
