39

C      2.757376   -2.083315    1.354301
C      2.430454   -3.467972   -0.614099
C     -1.390650    0.551889    2.792361
C      0.235442    2.162344   -0.566747
C     -2.672689    2.139665   -0.260419
C     -2.089203    2.177355    1.112337
C      1.009633   -0.985490   -1.511057
C     -1.952455    1.317371   -1.259774
C      0.113262    0.104246   -1.892168
C      0.648382   -0.370046    0.888763
C      2.066427   -2.331260    0.264471
C     -1.382811    0.930644    1.504591
C      0.915599   -1.484161   -0.100588
C     -0.708064    0.161167    0.473767
C     -0.555209    0.894573   -0.795459
H      2.577863   -1.289906    2.053953
H      3.605855   -2.745706    1.583934
H      3.134951   -3.174539   -1.413237
H      2.927892   -4.294140   -0.056954
H      1.515415   -3.941635   -1.067462
H     -0.896644   -0.339953    3.130372
H     -1.908043    1.163319    3.505436
H      1.131590    2.191794   -1.263557
H     -0.354035    3.063606   -0.855364
H      0.606448    2.295833    0.452959
H     -3.720917    1.716567   -0.182925
H     -2.854615    3.188384   -0.604365
H     -1.467615    3.092393    1.239421
H     -2.981668    2.245776    1.824203
H      0.891412   -1.875698   -2.189530
H      2.076254   -0.668032   -1.664532
H     -1.766352    1.956101   -2.165391
H     -2.526732    0.409230   -1.528155
H      0.646384    0.849594   -2.554959
H     -0.702235   -0.297478   -2.536911
H      0.620735   -0.831891    1.895625
H      1.374839    0.457553    0.797811
H      0.002002   -2.147262   -0.055640
H     -1.358278   -0.740925    0.264991
