39

C     -2.042183   -2.067118   -1.101943
C     -2.492512   -1.817434    1.275561
C      3.064785   -2.315978   -0.299095
C      2.338248   -0.066985    0.766516
C      2.013933    1.277384    0.168396
C     -2.040776    0.739430   -0.008991
C     -1.445368    2.092198    0.196509
C      1.056342   -1.136389   -0.949433
C     -1.438419   -1.673010    0.201271
C      2.119851   -1.171346   -0.184194
C     -0.933686   -0.259911    0.247875
C      0.760269    1.320596   -0.631571
C     -0.182162    2.328593   -0.091390
C      0.103415   -0.016585   -0.858232
C      0.318019    3.674367    0.137753
O      1.520955    4.009762   -0.106376
O     -0.486771    4.696916    0.642879
H     -1.396986   -2.727790   -1.723776
H     -2.346750   -1.223952   -1.746088
H     -2.984037   -2.665723   -0.936844
H     -2.668762   -2.878470    1.533882
H     -2.222665   -1.194809    2.144009
H     -3.468260   -1.413228    0.901676
H      2.606708   -3.193434    0.226415
H      3.314970   -2.543214   -1.342670
H      4.015505   -2.102243    0.235432
H      3.421332   -0.060681    1.029975
H      1.806619   -0.215814    1.741243
H      1.928864    2.000389    1.010326
H      2.904859    1.593762   -0.409722
H     -2.349091    0.703649   -1.078373
H     -2.890841    0.556937    0.677369
H     -2.116294    2.850513    0.592392
H      0.865575   -1.931164   -1.657511
H     -0.586725   -2.333830    0.479071
H     -0.535119   -0.060445    1.241892
H      1.046624    1.708805   -1.655331
H     -0.490480    0.021282   -1.797352
H     -0.088984    5.494969    1.128449
