40

C      5.111213    1.235372    0.110755
C      4.192891   -0.992231   -0.208164
C     -0.471915    0.419535    1.735228
C     -2.614183   -1.659295    0.367590
C     -4.862411    1.097559    0.058257
C     -1.187339   -1.839589    0.906967
C     -5.713744    1.407260   -0.978431
C      2.699582    0.984435   -0.003503
C      0.778879   -0.804817   -0.077207
C     -4.055313    0.295279   -1.820336
C      3.996662    0.478947   -0.607798
C     -3.796656    0.387074   -0.459207
C      1.513439    0.341338   -0.602532
C     -2.659913   -0.136050    0.290451
C     -0.539721   -0.498635    0.560098
O      1.103514    0.832583   -1.665150
O     -5.195559    0.912964   -2.067552
O     -1.433080    0.103963   -0.354642
H      6.055977    0.618343    0.134701
H      5.261834    2.234415   -0.295498
H      4.786826    1.298653    1.182266
H      3.412665   -1.639100   -0.616574
H      5.222734   -1.319146   -0.383452
H      4.064472   -0.988556    0.913840
H     -1.027419    1.391035    1.583552
H     -0.936515   -0.060087    2.646817
H      0.570076    0.709965    1.959953
H     -2.645587   -2.102291   -0.658232
H     -3.366335   -2.078115    1.038238
H     -4.978247    1.350443    1.102840
H     -0.671392   -2.685331    0.438754
H     -1.300591   -1.950127    2.016905
H     -6.659850    1.967604   -0.912258
H      2.590092    2.077921   -0.139615
H      2.796204    0.822948    1.090855
H      1.413904   -1.274059    0.713190
H      0.601976   -1.586580   -0.845342
H     -3.431687   -0.192929   -2.529492
H      4.051428    0.612487   -1.700756
H     -2.676910    0.226813    1.316069
