39

C     -1.556391   -1.683557   -2.281438
C      2.407983    1.225078    2.171822
C     -1.696777   -1.577085    1.005144
C      2.060004    0.967255   -0.277817
C     -0.274830    1.629815   -0.003905
C      0.913758   -0.540401    1.221207
C     -1.896832   -0.877714   -1.294995
C      0.662796    0.692738   -0.758091
C      0.315444   -0.666161   -0.166324
C     -3.126566   -0.027175   -1.236546
C     -2.710265    1.190338   -0.496537
C      3.383243   -0.666008    1.037123
C      2.190967    0.221585    1.040134
C     -1.169743   -0.624954   -0.044183
C     -1.465062    0.801822    0.255422
O     -4.201769   -0.696158   -0.696309
O      3.191939   -1.894177    1.222174
O      4.665238   -0.226869    0.846226
O     -2.593515    1.226295    0.868011
H     -2.171467   -1.789542   -3.156159
H     -0.644291   -2.247371   -2.210716
H      1.501619    1.395485    2.757509
H      3.193204    0.865459    2.883924
H      2.774110    2.168745    1.702031
H     -1.301569   -1.399048    2.005127
H     -2.795852   -1.482068    1.040892
H     -1.465468   -2.601276    0.665002
H      2.216566    2.045215   -0.107132
H      2.806921    0.634638   -1.015969
H      0.200865    2.089600    0.863360
H     -0.482235    2.471795   -0.727973
H      0.218519    0.117947    1.798159
H      1.039471   -1.515354    1.721041
H      0.533813    0.736151   -1.838684
H      0.720317   -1.499422   -0.737099
H     -3.404787    0.274462   -2.275604
H     -2.756500    2.182012   -0.991477
H     -4.768041   -0.089059   -0.132343
H      5.485181   -0.833041    0.809886
