37

C      2.383297    2.006394    0.810141
C      4.583663    1.593181   -0.447858
C     -4.523427    1.882595    1.077494
C     -0.293469   -3.109811    0.374059
C      1.680962   -0.773290    0.338380
C      2.979735   -0.169193   -0.149822
C      0.910771   -1.270642   -0.831245
C     -2.534024    0.448078    1.548938
C     -3.398182    0.417253   -0.629856
C     -1.549910   -0.456318    1.194168
C     -2.417692   -0.484736   -0.986632
C      3.287564    1.087416    0.068433
C     -3.476834    0.905939    0.655450
C     -0.414747   -1.917120   -0.511407
C     -1.461239   -0.952534   -0.090840
H      2.869424    2.983808    0.954519
H      2.221736    1.545198    1.814084
H      1.421566    2.141908    0.272295
H      4.777932    2.616138   -0.079805
H      4.527472    1.660261   -1.569757
H      5.379304    0.872187   -0.159111
H     -4.724670    2.605799    0.232976
H     -4.217658    2.477227    1.936093
H     -5.478598    1.331812    1.209889
H     -1.235190   -3.718302    0.236875
H      0.526941   -3.731057    0.018951
H     -0.257652   -2.874547    1.451901
H      1.130342    0.053505    0.877522
H      1.958044   -1.508930    1.089990
H      3.627656   -0.849542   -0.687839
H      1.559998   -1.966798   -1.402604
H      0.762210   -0.396479   -1.519664
H     -2.572957    0.814745    2.561844
H     -4.120872    0.751988   -1.363238
H     -0.814255   -0.815411    1.910078
H     -2.344748   -0.881685   -2.008833
H     -0.752491   -2.319037   -1.520882
