47

C      3.855721    1.334475   -1.976699
C      2.235158   -2.229198    0.015832
C      2.959502   -0.772663    1.791662
C     -1.923181    2.290640   -0.922502
C     -2.950157   -1.596915    0.933483
C      0.489375    0.809880    1.556423
C     -0.050087    1.777769    0.542034
C     -3.489176   -0.852478   -1.331850
C     -2.686560   -0.544174   -2.314896
C     -0.407465   -1.010178    0.040677
C     -2.410953    1.273931    1.229843
C      3.576533    0.263868   -0.970013
C      0.603081   -0.596809    1.011469
C      2.048456   -0.857884    0.565444
C     -1.396267    1.314112    0.107782
C     -2.857697   -0.486854   -0.059442
C     -1.456334   -0.072020   -0.406034
O      4.436384   -0.567457   -0.607159
O     -1.539598    0.009907   -1.833020
O     -3.472565    0.636517    0.542376
O      2.340728    0.130355   -0.377255
H      4.219501    2.219719   -1.378592
H      2.872168    1.655370   -2.387458
H      4.576343    1.038312   -2.734512
H      1.992083   -2.327966   -1.055651
H      3.311518   -2.484524    0.117985
H      1.699321   -2.987562    0.647824
H      3.364535    0.236687    1.938007
H      3.783131   -1.499919    1.731403
H      2.337250   -1.056736    2.667362
H     -1.617729    3.324519   -0.668116
H     -3.045151    2.294993   -0.948839
H     -1.596175    2.027720   -1.950728
H     -2.301127   -1.426769    1.810797
H     -4.003118   -1.563359    1.346751
H     -2.858034   -2.611054    0.497402
H     -0.084652    0.861603    2.504164
H      1.519477    1.137352    1.807871
H     -0.139759    2.756105    1.016480
H      0.602960    1.846613   -0.327191
H     -4.461498   -1.306630   -1.481374
H     -2.877135   -0.695611   -3.381822
H      0.115430   -1.381465   -0.894153
H     -0.934191   -1.948360    0.392635
H     -2.761619    2.265251    1.533800
H     -2.122086    0.608290    2.053420
H      0.503660   -1.237402    1.942105
