39

C      3.515805   -1.503686   -0.721430
C     -2.574288   -3.339473    0.004665
C     -1.245178   -3.217035    0.324164
C     -3.348240   -2.251940   -0.301439
C      2.710946    1.805860    0.213082
C      3.387599    0.525309    0.542383
C      0.700908   -1.754298    0.805765
C      0.525301    2.874702   -0.056684
C     -3.074405    3.290555    0.089965
C     -0.686018   -1.956843    0.333905
C      1.266336    1.722926    0.054759
C      1.364746   -0.710486   -0.016838
C     -2.776720   -0.967151   -0.294250
C     -0.844809    2.843419   -0.204957
C      0.608746    0.535653    0.014507
C     -1.453696   -0.838160    0.021513
C     -0.791390    0.467477   -0.131246
C     -1.535100    1.622124   -0.245017
N      2.762567   -0.656525    0.170395
O     -3.585111    0.071876   -0.607522
O     -1.812705    3.833497   -0.338482
O     -2.861174    1.958402   -0.396313
H      2.908579   -2.416029   -0.911358
H      3.693769   -0.945528   -1.653771
H      4.484010   -1.789378   -0.226015
H     -3.023865   -4.312177   -0.006716
H     -0.600732   -4.043433    0.570447
H     -4.391422   -2.311619   -0.554094
H      2.965386    2.571437    1.002126
H      3.123489    2.257406   -0.734819
H      3.608431    0.494039    1.642777
H      4.414052    0.555885    0.069599
H      1.271587   -2.715161    0.824844
H      0.617857   -1.412306    1.888096
H      1.017363    3.825571   -0.028563
H     -3.926670    3.766801   -0.376895
H     -3.067124    3.242822    1.177782
H      1.235820   -1.082884   -1.096941
H     -4.584652   -0.041647   -0.847420
