42

C      2.568220    2.005282   -0.842514
C      3.777698    0.445957    0.520208
C     -4.133780    1.362077   -0.109067
C     -0.939225   -2.073915   -1.391351
C     -2.865384   -0.578039    0.384664
C     -1.667169    1.594305    0.561875
C      1.796489   -1.405067    0.615962
C     -1.719442   -1.430112    0.766192
C      0.537146   -2.178712    0.539950
C     -0.558357    1.252464   -0.376580
C      2.547061    0.617116   -0.395810
C     -2.856509    0.742775    0.292272
C      1.417690    0.038556    0.347688
C     -0.521428   -1.300818   -0.118071
C      0.088275   -0.025199   -0.418230
O      0.581577   -0.179216   -1.760081
H      3.632096    2.208220   -1.194280
H      1.964806    2.278130   -1.721285
H      2.478848    2.733874    0.011685
H      3.952462   -0.598637    0.772254
H      3.525554    1.064918    1.430131
H      4.649208    0.948390    0.054254
H     -4.596663    0.751064   -0.899665
H     -4.013016    2.427901   -0.376038
H     -4.824412    1.304236    0.774732
H     -1.989878   -1.847912   -1.640139
H     -0.864713   -3.165256   -1.222252
H     -0.307410   -1.818413   -2.239083
H     -3.817064   -1.039352    0.151738
H     -1.340760    1.470260    1.626387
H     -1.920470    2.647161    0.425783
H      2.461974   -1.777483   -0.212126
H      2.318886   -1.507186    1.589617
H     -1.386353   -1.239745    1.814922
H     -2.051159   -2.473175    0.731920
H      0.268489   -2.441573    1.606580
H      0.641669   -3.169562    0.049706
H     -0.933553    1.579916   -1.397258
H      0.199112    2.064641   -0.138775
H      2.794444   -0.042654   -1.281517
H      1.207733    0.541798    1.303899
H     -0.102691    0.212988   -2.359526
