39

C     -3.896265   -0.448569   -0.193381
C      1.329178   -3.859627   -0.842494
C      0.090614   -3.354239   -0.527689
C      2.432857   -3.041653   -0.854724
C     -1.978317    2.586604    0.616061
C     -2.900144    1.425189    0.940812
C     -1.360928   -1.503478    0.234639
C      0.478254    2.863265    0.631043
C      4.008905    2.200586    0.062858
C     -0.037565   -2.007798   -0.220777
C     -0.609245    2.042728    0.436458
C     -1.534708   -0.151399   -0.291485
C      2.319774   -1.670350   -0.547759
C      1.758950    2.390781    0.478404
C     -0.401687    0.726822    0.082196
C      1.101291   -1.178252   -0.240253
C      0.909263    0.258411   -0.064373
C      2.008574    1.067697    0.124895
N     -2.809922    0.446646   -0.076861
O      3.466954   -0.972795   -0.596357
O      2.981597    3.025795    0.618241
O      3.376295    0.958180    0.068796
H     -4.117087   -0.946602    0.771571
H     -4.795588    0.122932   -0.567236
H     -3.669092   -1.190670   -0.985030
H      1.387582   -4.921646   -1.076524
H     -0.796014   -3.987735   -0.513308
H      3.404149   -3.426488   -1.097555
H     -1.988205    3.256689    1.481041
H     -2.291441    3.097795   -0.308954
H     -3.929250    1.837179    0.938709
H     -2.658559    1.045334    1.949032
H     -2.138205   -2.236260   -0.133321
H     -1.435416   -1.547023    1.359780
H      0.297193    3.901644    0.910238
H      4.913923    2.251080    0.681605
H      4.168654    2.542773   -0.980176
H     -1.472987   -0.265621   -1.437736
H      4.386618   -1.337926   -0.830385
