39

C      3.783617    0.224668    0.303239
C      2.526677   -1.581548   -0.777024
C     -2.503904   -2.781344    1.375201
C     -2.204901    2.243665    0.385952
C      0.281902    2.359614    0.113572
C      1.139988    1.513347    0.971128
C     -2.592200   -1.477642   -0.755513
C     -2.029777   -0.283946   -1.417238
C      2.490503   -0.133732   -0.353236
C     -2.114875   -1.654682    0.466415
C     -0.966194    1.753583   -0.380732
C      1.289314    0.097668    0.541284
C     -1.151784   -0.571355    0.772817
C      0.115273   -0.507344   -0.112434
C     -1.036386    0.275316   -0.411182
H      3.799992   -0.047923    1.382475
H      4.577359   -0.415026   -0.166633
H      4.097789    1.269124    0.140131
H      3.583583   -1.885134   -0.862131
H      2.066915   -2.221165    0.014622
H      2.005796   -1.751352   -1.740455
H     -1.669924   -3.072335    2.026719
H     -3.416287   -2.462790    1.946087
H     -2.804890   -3.679182    0.807684
H     -2.271067    3.342847    0.373378
H     -2.179870    1.827998    1.434652
H     -3.070369    1.839600   -0.188684
H      0.923099    2.763197   -0.723832
H      0.012498    3.285127    0.703661
H      2.166256    1.981150    1.004211
H      0.760155    1.587037    2.030244
H     -3.328615   -2.144968   -1.231368
H     -2.797590    0.453376   -1.707663
H     -1.463050   -0.631201   -2.305066
H      2.388262    0.497645   -1.276686
H     -1.137997    2.122889   -1.433218
H      1.496991   -0.495815    1.481442
H     -1.067003   -0.190620    1.805342
H      0.300714   -1.448746   -0.662858
