39

C      3.965720   -0.797402   -1.124805
C     -0.375518   -2.173639   -1.065002
C     -0.352704    2.274822    0.952080
C     -2.075404    1.361438   -0.486957
C     -2.654002   -0.715717    1.386786
C     -2.327734   -1.416048    0.113146
C      2.104863   -1.062296    0.496935
C      2.068166    0.925357   -0.829748
C     -1.715069    0.404283    1.735515
C      0.868311   -0.501874    1.077583
C      0.639928    0.528933   -1.191720
C      2.731122   -0.376844   -0.452179
C     -0.921399   -1.231986   -0.334842
C     -1.050795    1.005898    0.538422
C     -0.090974   -0.040363   -0.000242
H      4.886600   -0.440293   -0.585047
H      4.025336   -1.898629   -1.296334
H      4.020924   -0.340586   -2.141789
H      0.633439   -2.094046   -1.415052
H     -0.944614   -3.050384   -1.324423
H      0.062510    2.777133    0.057449
H     -1.178954    2.962014    1.303139
H      0.329005    2.180627    1.793546
H     -2.060639    2.462742   -0.744616
H     -3.127886    1.189915   -0.147972
H     -1.884849    0.862900   -1.475491
H     -2.690857   -1.397830    2.261344
H     -3.666569   -0.273422    1.286510
H     -2.985030   -1.127407   -0.729755
H     -2.549241   -2.512508    0.282759
H      2.541122   -2.010452    0.799225
H      2.126536    1.558201    0.057113
H      2.534814    1.392573   -1.695539
H     -0.919602    0.091038    2.443527
H     -2.262457    1.234844    2.258936
H      0.399766   -1.341500    1.668804
H      1.062228    0.285859    1.831798
H      0.690343   -0.174018   -2.032821
H      0.143566    1.478668   -1.511846
