50

C     -0.722541    2.401817   -1.227896
C      6.064564    1.205859   -1.549231
C      4.640160   -0.499363    2.748128
C      2.006379    0.341666   -1.539932
C      3.345455    0.612145   -1.520684
C     -2.580022   -0.537756   -2.175945
C     -1.525922    0.489154   -2.457644
C     -4.417735   -0.954702   -0.535381
C     -6.191179   -0.808910    2.646611
C     -3.101162   -0.547947   -0.795726
C      1.444936   -0.438928   -0.522166
C      4.143314    0.120382   -0.505493
C     -4.892412   -0.966985    0.754834
C     -2.269829   -0.157130    0.230323
C      2.261840   -0.913527    0.471984
C     -0.895701    0.266109   -0.122086
C     -2.765186   -0.177400    1.511628
C      0.068646   -0.896446   -0.252006
C      3.621068   -0.651527    0.511101
C     -4.069003   -0.578678    1.784356
C      1.429951   -1.690940    1.376078
N     -0.946085    1.000106   -1.307474
O     -1.911079    0.220144    2.532784
O      1.867724   -2.276268    2.413288
O      5.498304    0.428024   -0.537817
O      4.395229   -1.156880    1.539396
O     -6.132119   -1.313398    1.325782
O     -4.805995   -0.691440    2.954738
O      0.140618   -1.661709    0.899664
H     -0.327889    2.850993   -2.149391
H     -0.006874    2.608236   -0.403732
H     -1.721343    2.890408   -1.040302
H      7.179987    1.068686   -1.505434
H      5.836560    2.282628   -1.418282
H      5.751640    0.805519   -2.530690
H      5.257752   -1.187132    3.380392
H      5.216347    0.429390    2.648076
H      3.707774   -0.264244    3.319105
H      1.346880    0.708630   -2.321971
H      3.764273    1.223055   -2.323747
H     -2.212061   -1.584585   -2.395845
H     -3.463578   -0.388270   -2.843775
H     -0.785223   -0.001804   -3.157552
H     -1.964415    1.303777   -3.076033
H     -5.071223   -1.261479   -1.339984
H     -6.597406    0.230762    2.641902
H     -6.723889   -1.477910    3.330505
H     -0.466074    0.935501    0.678355
H     -0.216785   -1.568234   -1.093205
H     -2.206678    0.230598    3.498328
