37

C      2.113183   -1.802712   -1.196404
C      3.330773   -0.639915    0.537943
C     -1.184207   -1.926957    0.151153
C     -1.172727    1.097335    1.661901
C      2.314934   -0.670223   -0.565811
C     -2.524582    1.054133    0.980460
C      1.605947    0.531411   -0.874511
C      0.809885    1.186237    0.238433
C      0.556155    0.504934   -1.946586
C     -0.697463   -0.232099   -1.623076
C      0.163648    2.271226   -0.536763
C     -2.895468    0.391881   -1.405206
C     -1.031336   -0.457347   -0.209963
C     -0.239019    0.301190    0.794675
C     -2.412934    0.143745   -0.061904
O     -0.332368    3.313608   -0.074966
O     -4.077185    0.467784   -1.779389
O      0.370732   -0.653931    1.642372
O      0.202652    1.929606   -1.886785
O     -1.784493    0.531117   -2.207984
O     -3.216092   -0.174186    0.990605
H      1.408434   -1.919954   -1.998676
H      2.676905   -2.683810   -0.910335
H      3.026471   -1.298020    1.372257
H      4.307813   -1.073637    0.175733
H      3.541320    0.398834    0.835786
H     -0.243418   -2.420583    0.376444
H     -1.837960   -2.020742    1.039995
H     -1.664243   -2.451298   -0.695253
H     -0.902111    2.134489    1.832032
H     -1.315483    0.643231    2.667374
H     -3.147949    1.965692    0.934138
H      2.346007    1.327332   -1.182402
H      1.449748    1.555447    1.051831
H      0.925875    0.249614   -2.939819
H     -0.788182   -1.205603   -2.171148
H      0.316738   -0.367828    2.590024
