54

C      1.585198   -2.344641    1.367118
C     -6.132254    0.238680    0.937152
C      4.256385    2.514352   -1.456797
C     -2.120344    0.752451    2.866312
C      4.628731   -0.546123    0.195236
C     -3.052603   -1.218975   -1.520529
C     -4.090919   -0.778989   -0.757110
C     -0.696644   -1.350960   -2.132421
C      0.511987   -1.729203   -1.305716
C      0.508709    1.065228    1.076195
C      0.978878   -0.073798    1.921828
C      0.185295    1.472369   -1.271817
C     -1.774797   -0.818135   -1.277620
C      1.473137    1.323372   -1.940611
C     -3.797717    0.087431    0.272238
C     -1.431427    0.070814   -0.233246
C      2.586552    0.692505   -1.251828
C     -2.472883    0.503714    0.526074
C      2.293802   -0.305618   -0.441421
C     -0.057874    0.464540   -0.144572
C      0.854782   -0.731006   -0.277299
N      0.705640   -1.260776    1.081598
O      1.585195    1.758554   -3.128821
O     -4.775364    0.597729    1.112402
O      3.866714    1.165303   -1.481996
O     -2.244336    1.368972    1.567274
O      3.300518   -0.950528    0.246498
H      1.988725   -2.868342    0.487521
H      2.395090   -2.066878    2.087961
H      0.981312   -3.119446    1.922871
H     -6.587215    0.680387    0.035439
H     -6.167462   -0.877195    0.809205
H     -6.735823    0.532507    1.815591
H      3.698087    3.117740   -2.215914
H      5.346137    2.542479   -1.661843
H      4.128917    2.953309   -0.429876
H     -1.411650    1.350704    3.473042
H     -1.806876   -0.297802    2.764295
H     -3.131612    0.771551    3.309604
H      4.737244    0.499655    0.566828
H      5.268296   -1.149321    0.884017
H      5.079413   -0.692540   -0.818475
H     -3.292489   -1.905529   -2.333216
H     -5.109265   -1.075507   -0.923297
H     -0.415997   -0.676212   -2.956726
H     -1.059157   -2.294107   -2.586412
H      1.359210   -1.857862   -2.009313
H      0.345272   -2.716403   -0.826661
H      1.493940    1.550059    0.719826
H      0.016133    1.893318    1.551349
H      2.102108   -0.110405    2.052929
H      0.580190   -0.153438    2.922832
H      0.177138    2.506987   -0.815295
H     -0.654027    1.495027   -1.991332
