38

C      2.442583    0.308137   -1.530641
C      2.549665   -1.472588    0.132233
C      1.043413    1.970725    0.033956
C     -0.279647    2.213574   -0.555578
C     -0.143441   -1.095832    1.933760
C     -3.195720   -0.856662   -0.070745
C      0.356701   -0.884026   -0.946868
C      1.241943    0.598867    0.665099
C     -1.194732    1.052705   -0.745700
C     -0.069697    0.158483    1.164877
C     -1.783122   -1.196368    0.252792
C     -1.570539   -1.480799    1.700981
C     -2.543685    1.435731   -0.187121
C      1.658088   -0.383698   -0.408017
C     -0.755045   -0.231311   -0.154577
O     -2.336591   -1.913388    2.510492
O     -2.911479    2.641346   -0.123462
O     -3.437540    0.486077    0.279904
H      2.848401   -0.550126   -2.145312
H      1.796984    0.870964   -2.204996
H      3.320431    0.832857   -1.148614
H      2.762749   -1.339235    1.231435
H      2.160924   -2.496465   -0.084978
H      3.574575   -1.460937   -0.336858
H      1.895265    2.208127   -0.671269
H      1.223906    2.694850    0.885795
H     -0.113024    2.660519   -1.584003
H     -0.796509    3.063825   -0.014992
H      0.453879   -1.929308    1.501577
H      0.060091   -0.981081    3.018254
H     -3.855423   -1.522911    0.556369
H     -3.391058   -1.014272   -1.129679
H      0.350521   -1.983148   -0.859334
H      0.277223   -0.656011   -2.034112
H      1.978063    0.638875    1.497003
H     -1.416600    0.847494   -1.836503
H     -0.634807    0.943466    1.674357
H     -1.566748   -2.178456   -0.265523
