37

C      2.201962    2.002281    0.185926
C      3.224354    0.122211    1.271230
C     -1.322893    1.637592    0.897980
C     -1.298894   -1.721730    1.038368
C      2.350644    0.700368    0.215330
C     -2.546810   -1.401815    0.233100
C      1.705807   -0.182508   -0.714725
C      0.796416   -1.248263   -0.127473
C      0.801657    0.378150   -1.757692
C     -0.511384    0.899468   -1.299060
C      0.191913   -1.787256   -1.372564
C     -2.637466    0.123942   -1.741136
C     -1.037759    0.453995   -0.010042
C     -0.303766   -0.639716    0.687831
C     -2.371033   -0.171550   -0.345295
O     -0.445923   -2.838439   -1.508794
O     -3.734212    0.005779   -2.328902
O      0.173440   -0.116997    1.902661
O      0.466761   -0.882009   -2.418389
O     -1.479681    0.557304   -2.313507
O     -3.341210   -0.330256    0.602468
H      1.606930    2.571125   -0.512316
H      2.720400    2.632709    0.935153
H      2.943146   -0.914292    1.542833
H      4.268696    0.047929    0.852278
H      3.278776    0.776942    2.167434
H     -1.558396    2.527193    0.245585
H     -2.183980    1.419642    1.575479
H     -0.404689    1.905139    1.453123
H     -0.979102   -2.737023    0.755087
H     -1.514319   -1.757845    2.125393
H     -3.115060   -2.251517   -0.197012
H      2.507459   -0.753671   -1.259693
H      1.327199   -1.997816    0.456271
H      1.262656    1.070713   -2.459858
H     -0.500740    2.026137   -1.359325
H     -0.540897   -0.125916    2.582253
