49

C      0.026403   -2.119442    1.316267
C      6.094944    0.339987    1.843942
C      4.732129   -0.502323   -2.544760
C      1.924099    0.874021    1.261723
C      3.284117    0.715495    1.477730
C     -3.152892   -2.010198    0.050113
C     -2.377123   -1.995927    1.376226
C     -4.602718   -0.131063   -0.758533
C     -2.690070    1.679261   -0.180772
C     -5.807119    3.222296   -1.104894
C     -3.417430   -0.557025   -0.225078
C      1.303191    0.348147    0.161604
C     -2.435220    0.347837    0.074365
C      4.022017    0.015227    0.566626
C     -4.861567    1.194096   -1.014655
C     -3.884478    2.119032   -0.719494
C      2.044771   -0.372010   -0.781408
C     -1.116758   -0.066765    0.659524
C     -0.073513    0.363051   -0.314676
C      3.405277   -0.518590   -0.545274
C      1.160694   -0.816554   -1.836426
N     -1.126570   -1.375541    1.101599
O      1.473481   -1.477659   -2.832107
O      5.406661   -0.174573    0.738939
O      4.154259   -1.230733   -1.472341
O     -5.962273    1.886911   -1.543743
O     -4.399249    3.365723   -1.071443
O     -0.096672   -0.362394   -1.519638
H      0.547395   -2.527475    0.417664
H      0.814241   -1.685883    1.964454
H     -0.278410   -3.061448    1.873233
H      7.170080    0.427575    1.574687
H      5.740592    1.361237    2.054195
H      6.030636   -0.324096    2.743810
H      3.984015   -0.304441   -3.345702
H      5.546318   -1.091164   -3.017220
H      5.107091    0.459862   -2.136059
H      1.376327    1.442714    2.019886
H      3.734368    1.153016    2.369539
H     -2.485838   -2.362018   -0.738908
H     -4.075296   -2.588329    0.153522
H     -2.964196   -1.503144    2.174789
H     -2.192860   -3.064546    1.616315
H     -5.405276   -0.845944   -1.006059
H     -1.924780    2.437106    0.047107
H     -6.291564    3.947921   -1.780560
H     -6.174445    3.317286   -0.070016
H     -1.000276    0.614415    1.556810
H     -0.286515    1.437068   -0.634904
