38

C      2.809304    0.888929   -0.413629
C      1.958064   -0.898339   -1.830914
C      0.552688   -2.072832    0.315803
C     -0.587151   -2.049113   -0.637785
C      0.404733    1.418526    1.686579
C     -2.915214    1.033820    0.936800
C      0.366337    0.847906   -1.011694
C      1.187759   -0.711629    0.564322
C     -1.401921   -0.798904   -0.671386
C      0.063068    0.083092    1.179983
C     -1.617488    1.482759    0.364698
C     -0.886490    2.179767    1.489409
C     -2.760198   -1.073609   -0.152508
C      1.597503   -0.004752   -0.672025
C     -0.733128    0.397591   -0.084955
O     -1.259736    3.145433    2.102088
O     -3.138862   -2.270804   -0.107164
O     -3.540982   -0.018658    0.252445
H      3.164620    0.786823    0.649036
H      2.641971    1.928183   -0.718786
H      3.704673    0.547438   -1.014921
H      2.084643   -1.947783   -1.576745
H      1.205393   -0.719145   -2.651035
H      2.932835   -0.589376   -2.316995
H      0.137854   -2.370705    1.326551
H      1.273423   -2.846487    0.059562
H     -0.277716   -2.334757   -1.688694
H     -1.251854   -2.924407   -0.354457
H      1.159350    1.990438    1.161222
H      0.635234    1.350927    2.769772
H     -3.581115    1.909369    1.084376
H     -2.701856    0.678422    1.988490
H      0.067624    0.625542   -2.051587
H      0.585120    1.917035   -0.947740
H      2.035240   -0.866936    1.240461
H     -1.584259   -0.523476   -1.757774
H     -0.527613   -0.471311    1.899784
H     -1.801851    2.281024   -0.410587
