72

C      0.968378    1.434780   -3.888943
C      2.569114   -3.519643    3.475967
C     -6.467895   -2.431270    0.580520
C     -2.132403   -1.392691    3.883121
C      0.053347    0.402879   -3.268793
C      4.837859    0.639440   -0.971224
C     -4.085644    1.445034   -1.583634
C      4.011170    1.851772   -0.741147
C     -3.406309    2.794103   -1.401490
C      1.444200    0.143189   -0.695116
C     -0.368078    1.455406    0.330209
C      5.504207   -1.429583    0.286660
C     -4.703104   -0.382345   -0.063952
C      3.149318   -1.531354    1.618605
C     -2.564567    0.117408    1.576459
C     -1.367923    2.105778   -2.278615
C     -0.568468    0.879939   -1.988765
C      4.563907   -0.442324    0.016646
C     -3.799547    0.645917   -0.370184
C      0.442433    1.240084   -0.925638
C      3.377957   -0.521398    0.709108
C     -2.734052    0.905362    0.432103
C      2.366580    0.525479    0.429885
C     -1.749169    1.983907    0.137005
C      5.268895   -2.438681    1.198893
C      4.076287   -2.515562    1.893153
C     -4.503867   -1.137299    1.068918
C     -3.428355   -0.894136    1.904451
N      3.024568    1.765438    0.266378
N     -2.004136    2.582943   -1.110931
O      6.230718   -3.412619    1.446992
O      3.833596   -3.530789    2.813991
O     -5.364349   -2.173649    1.429016
O     -3.256760   -1.681889    3.050258
H      1.121813    2.310072   -3.216133
H      0.643541    1.760322   -4.893478
H      1.971881    0.970925   -4.003096
H      2.390488   -2.566014    3.996725
H      1.800074   -3.566872    2.658887
H      2.408750   -4.398293    4.101643
H     -6.147905   -2.624520   -0.468623
H     -7.158994   -1.541820    0.551136
H     -7.074779   -3.285023    0.948427
H     -2.281868   -0.335177    4.225073
H     -1.194710   -1.374775    3.287126
H     -2.086319   -2.056762    4.750455
H      0.553966   -0.578418   -3.196165
H     -0.789887    0.259466   -3.992302
H      4.776407    0.239833   -2.023493
H      5.920558    0.957441   -0.879890
H     -5.186826    1.648600   -1.585099
H     -3.862687    0.954646   -2.525650
H      4.630035    2.774064   -0.530566
H      3.503396    2.094962   -1.719300
H     -3.482568    3.325665   -2.370998
H     -3.885900    3.355976   -0.576197
H      1.958141   -0.078553   -1.635844
H      0.928755   -0.791614   -0.384369
H     -0.454746    0.419772    0.777450
H      0.214657    2.115657    1.011863
H      6.447140   -1.359682   -0.269978
H     -5.534444   -0.563490   -0.717492
H      2.202318   -1.598378    2.174960
H     -1.738176    0.323733    2.224212
H     -0.735331    2.944572   -2.671343
H     -2.140067    1.866833   -3.055101
H     -1.228253    0.101209   -1.595297
H      0.942447    2.190846   -1.194667
H      1.715857    0.612273    1.349585
H     -1.912312    2.767224    0.980518
H      2.440954    2.610474    0.260695
H      7.106686   -3.368801    0.946420
