43

C     -2.959123   -1.510554    1.131733
C      5.086324    0.450843    0.564490
C     -3.725200    0.910758   -0.308096
C     -4.019978   -0.498676   -0.679410
C     -0.709262   -2.039847   -0.978708
C      1.645303   -2.582037   -0.948311
C     -1.985958    2.430758    0.521026
C      2.369728   -0.098283    0.058331
C      1.275324    3.866314    0.977052
C     -2.314127    1.205059   -0.018251
C      0.677516   -1.628164   -0.699283
C      1.053137   -0.387437   -0.195574
C     -1.729355   -0.989112   -0.872630
C      2.957254   -2.298888   -0.697550
C      3.331385   -1.074740   -0.199297
C     -0.676879    2.744054    0.812000
C     -1.301626    0.281897   -0.267192
C     -0.024733    0.605128    0.025322
C      0.341933    1.830319    0.568758
N     -2.987702   -1.453375   -0.306970
O      3.961554   -3.239591   -0.937581
O      4.660287   -0.797841    0.051453
O     -0.100433    3.904466    1.354590
O      1.494276    2.471234    0.973969
H     -2.994952   -0.511191    1.614806
H     -3.878483   -2.044519    1.453844
H     -2.108836   -2.106063    1.520222
H      4.745909    0.545356    1.615896
H      6.181950    0.548821    0.519580
H      4.601912    1.279921   -0.023970
H     -4.100883    1.565891   -1.148530
H     -4.330885    1.201136    0.590004
H     -4.269381   -0.592497   -1.771960
H     -4.943039   -0.828028   -0.154060
H     -0.894547   -2.934973   -0.340512
H     -0.691176   -2.452093   -2.029393
H      1.384911   -3.554136   -1.339985
H     -2.737303    3.179404    0.731747
H      2.663213    0.856641    0.445778
H      1.910473    4.394357    1.696478
H      1.393041    4.210188   -0.071602
H     -2.027999   -0.699990   -1.936453
H      3.776432   -4.160509   -1.301759
