72

C      2.120417   -3.803723    0.769876
C     -3.955516    3.409511    1.633158
C     -6.534440    2.206900   -2.026277
C      1.513261   -3.495540   -0.560298
C      7.230187    3.381461   -0.171257
C      6.893294    3.305437   -1.526877
C      6.321964    2.853140    0.721549
C      5.711826    2.729697   -1.933808
C      3.905216    1.486866    2.540432
C     -3.788746   -2.579663   -1.050771
C      2.386815    1.401074    2.743942
C     -3.206708   -3.276220    0.169772
C      1.742353   -0.690069   -0.219290
C     -0.782957   -0.560785   -0.074796
C     -3.401506    0.714490    0.699185
C     -0.807374   -3.398665    0.304838
C      0.263234   -2.688237   -0.485598
C      0.475561   -1.344189    0.188847
C      5.129228    2.269111    0.349941
C      4.107797    1.694208    1.083051
C     -4.106714   -1.193561   -0.599766
C     -3.167466   -0.587286    0.228668
C      4.833742    2.214418   -1.007563
C      1.911446    0.609609    0.522659
C     -1.915133   -1.271400    0.627056
C     -4.543379    1.398680    0.353885
C      3.189481    1.291389    0.138347
C     -5.254709   -0.528245   -0.957950
C     -5.442563    0.761986   -0.465973
N      1.936908    0.273285    1.952495
N      3.625768    1.602173   -1.091851
N     -1.989037   -2.641242    0.488025
O     -6.189176   -1.115681   -1.776711
O     -4.820086    2.693036    0.796305
O     -6.603952    1.426071   -0.832183
H      1.956818   -4.893138    1.013882
H      1.747180   -3.169277    1.591100
H      3.221741   -3.699407    0.673526
H     -4.585717    4.101794    2.252297
H     -3.408454    2.782213    2.361794
H     -3.284257    4.082779    1.049940
H     -6.152365    3.240721   -1.803032
H     -7.540066    2.315197   -2.482121
H     -5.892817    1.712385   -2.792067
H      2.238558   -2.950940   -1.231408
H      1.279390   -4.434629   -1.100046
H      8.162996    3.836496    0.143558
H      7.617170    3.725761   -2.227733
H      6.541479    2.890047    1.782687
H      5.502702    2.697810   -2.990336
H      4.317794    0.491417    2.816004
H      4.350085    2.282284    3.157179
H     -3.004234   -2.595623   -1.828232
H     -4.681846   -3.139956   -1.320501
H      2.126829    1.224158    3.796080
H      1.940468    2.342930    2.344158
H     -3.040494   -4.349155   -0.002790
H     -3.944993   -3.192471    1.001072
H      2.586118   -1.365607    0.020014
H      1.692168   -0.532900   -1.325390
H     -0.771674    0.478844    0.236368
H     -0.990269   -0.682014   -1.176368
H     -2.668044    1.178222    1.341858
H     -1.070819   -4.367513   -0.167959
H     -0.373774   -3.643961    1.296697
H     -0.104159   -2.500050   -1.506435
H      0.444018   -1.578708    1.293269
H      1.040677    1.252326    0.282460
H     -1.785676   -1.018399    1.722743
H      2.662994   -0.480629    2.068665
H      3.174076    1.436920   -2.018737
H     -6.092640   -2.025958   -2.151105
