46

C      0.777729   -3.133409   -2.052563
C     -4.884300    1.285684   -0.532343
C      0.175328    3.184736   -1.861382
C      3.246501    0.311130    1.238007
C      1.081278    0.799701    2.032993
C      3.677519    1.573458    1.526532
C      1.487712    2.087703    2.337098
C     -1.528393   -2.519476    0.401495
C     -0.531766   -3.465911   -0.186132
C      1.521733   -1.498451    1.147860
C     -2.551619   -0.382808   -0.234308
C     -0.064582    0.605083   -0.907521
C      1.953279   -0.112666    1.477430
C     -1.417720   -1.150108   -0.105335
C      2.778379    2.481004    2.088214
C     -0.171869   -0.682757   -0.432721
C      0.985500   -1.573115   -0.262969
C     -2.458754    0.928119   -0.715510
C     -1.206457    1.398018   -1.044449
N      0.699008   -2.921446   -0.622788
O      3.260194    3.735974    2.359664
O     -3.598389    1.717200   -0.851524
O     -1.095511    2.693900   -1.522565
H      0.267246   -2.327926   -2.630069
H      1.811993   -3.301855   -2.401674
H      0.229910   -4.070834   -2.275126
H     -4.910689    0.658476    0.399990
H     -5.327132    0.702684   -1.359630
H     -5.530306    2.185330   -0.327643
H      0.638171    2.619693   -2.718348
H      0.867535    3.145427   -0.996905
H      0.149089    4.239060   -2.205222
H      3.965689   -0.372279    0.803333
H      0.054532    0.546410    2.250558
H      4.696326    1.855503    1.320737
H      0.829837    2.828559    2.773146
H     -1.499746   -2.495798    1.523729
H     -2.545184   -2.900890    0.156739
H     -1.009922   -4.102299   -0.970965
H     -0.294094   -4.210323    0.634283
H      2.378033   -2.151340    1.319968
H      0.747473   -1.761323    1.894615
H     -3.505768   -0.786563    0.031386
H      0.872885    1.038868   -1.181798
H      1.764605   -1.190493   -0.988469
H      3.214714    4.490352    1.670183
