41

C      3.259015    0.150647    0.992471
C     -2.181250    4.487571   -0.167597
C     -0.312987   -3.815634    0.341980
C     -1.599907   -4.273102    0.433161
C      2.263646    2.013080   -0.625314
C      2.991318    0.878728   -1.286286
C      1.397808   -2.041780    0.216572
C     -0.167715    2.516827   -0.323749
C     -2.363599   -1.977616    0.259734
C     -0.018125   -2.457848    0.211043
C      0.855535    1.602381   -0.410077
C     -2.606500   -3.351100    0.391854
C     -1.064553   -1.550478    0.169433
C      1.594189   -0.776087   -0.480312
C     -1.477759    2.133840   -0.122483
C      0.535536    0.242649   -0.287281
C     -0.776616   -0.117519   -0.083661
C     -1.800639    0.792030    0.001772
N      2.931588   -0.228467   -0.341980
O     -3.918077   -3.746788    0.480213
O     -3.127966    0.526003    0.200215
O     -2.447834    3.125660   -0.049775
H      4.192410    0.732125    0.974415
H      2.440712    0.650858    1.546133
H      3.497483   -0.794551    1.556916
H     -3.101529    5.080453   -0.041656
H     -1.729439    4.661836   -1.175821
H     -1.426743    4.762462    0.610529
H      0.500256   -4.556430    0.374800
H     -1.806023   -5.351806    0.536530
H      2.756869    2.323226    0.319882
H      2.260903    2.906791   -1.312808
H      2.415373    0.570975   -2.181673
H      4.029685    1.127190   -1.566507
H      2.008454   -2.834098   -0.312322
H      1.741262   -2.027575    1.296891
H      0.109427    3.564141   -0.422749
H     -3.184050   -1.308130    0.225796
H      1.536306   -1.012700   -1.602138
H     -4.345434   -3.808141    1.391205
H     -3.861031    1.180376    0.262643
