35

C     -2.056422    1.531986    1.050917
C     -3.968758    0.020432    0.066251
C      4.137775   -2.131872   -0.687672
C      2.688070    2.783210    1.272320
C     -1.073342   -1.755373   -1.274355
C     -2.281440   -1.531793   -0.353369
C      1.291046   -1.336902   -0.748639
C      0.674831    1.157943    0.263536
C     -1.720002    0.819828   -0.233118
C     -0.002118   -0.895628   -0.740956
C     -0.309458    0.336615   -0.241487
C      2.306831   -0.545953   -0.252489
C      1.976518    0.707339    0.252984
N     -2.685416   -0.174056   -0.562117
O      3.623465   -0.919579   -0.226915
O      3.007489    1.521678    0.761663
H     -1.870566    0.916422    1.945746
H     -3.137662    1.778912    1.033008
H     -1.516197    2.479073    1.179050
H     -4.615038   -0.839098   -0.280398
H     -3.905198   -0.106095    1.169766
H     -4.472008    0.930968   -0.256161
H      3.593155   -2.553925   -1.545637
H      5.192748   -1.979132   -0.998163
H      4.155048   -2.838616    0.189293
H      2.260628    3.401816    0.469233
H      1.996182    2.711919    2.140476
H      3.620442    3.248279    1.647964
H     -0.797608   -2.825002   -1.322672
H     -1.379410   -1.443366   -2.310453
H     -3.109787   -2.196727   -0.583481
H     -1.902150   -1.710152    0.688066
H      1.586955   -2.313592   -1.137003
H      0.456225    2.144111    0.667253
H     -1.764827    1.606331   -1.042441
