53

C     -4.166853    2.789284   -1.367767
C      3.905833    0.303403    3.527773
C      6.270424   -0.926269   -0.424639
C     -3.818278    1.935356   -0.172047
C      0.867290   -0.696189   -2.145029
C     -3.341623   -1.022019    0.612039
C     -0.445834   -0.017658   -1.948425
C     -3.231825   -1.865479    1.880794
C     -0.999277   -0.346161    0.778439
C      2.227753    0.112357    1.289338
C     -1.505179    1.883168   -0.924455
C     -2.653980    1.006651   -0.540793
C     -2.390547    0.148598    0.657368
C      1.742093   -0.586657   -0.953602
C      1.367055    0.043219    0.212734
C      0.033337    0.643938    0.298540
C      3.494898   -0.435831    1.263737
C      3.005280   -1.136412   -0.987254
C      3.867685   -1.066394    0.093322
N     -0.318687    1.097928   -1.050175
O     -4.121412   -2.933459    1.803634
O      3.414331   -1.784713   -2.163475
O      4.360488   -0.364776    2.350242
O      5.133621   -1.631389    0.024805
H     -5.146575    3.248495   -1.222798
H     -4.216865    2.096911   -2.242906
H     -3.427706    3.600646   -1.508404
H      3.003031   -0.157457    3.938548
H      4.729619    0.428841    4.259341
H      3.609141    1.357316    3.248585
H      6.838514   -1.591200   -1.103881
H      6.965062   -0.657088    0.402732
H      5.995609   -0.031622   -1.035536
H     -3.556846    2.535693    0.714678
H     -4.708353    1.303605    0.063313
H      0.715967   -1.789219   -2.384649
H      1.339239   -0.275724   -3.062965
H     -3.135937   -1.702066   -0.230033
H     -4.402255   -0.716717    0.524555
H     -0.811900    0.385230   -2.919553
H     -1.206585   -0.757252   -1.623552
H     -3.486197   -1.283187    2.784713
H     -2.212183   -2.316906    1.957459
H     -0.788867   -0.502629    1.876997
H     -0.886162   -1.339246    0.315121
H      1.950754    0.609452    2.229806
H     -1.342745    2.601840   -0.083758
H     -1.783178    2.416403   -1.855627
H     -2.969280    0.434687   -1.440275
H     -2.651630    0.734077    1.581654
H     -0.001198    1.525274    0.956958
H     -3.927361   -3.457774    0.970521
H      2.818297   -1.850880   -2.954319
