44

C      5.381845    0.796622   -1.058030
C      6.571364    0.303347    1.149098
C     -0.365586   -2.204863    1.144472
C      0.912704   -2.352820   -0.921890
C     -5.273744    2.170101    0.322430
C     -6.539006    1.902823   -0.115541
C      4.140083    0.095044    0.879679
C     -2.976899    1.439190    0.410982
C     -0.574840    0.814561    0.587383
C     -3.582435   -0.806189   -1.029016
C      5.318754    0.381644    0.363019
C     -4.274049    1.238127    0.004275
C     -1.947106    0.548271    0.123470
C     -4.553966    0.101973   -0.718398
C     -2.264925   -0.564951   -0.594473
C      0.451864   -0.099327    0.047139
C     -6.775772    0.752836   -0.836609
C      2.904977    0.166525    0.124764
C     -0.098216   -1.521396   -0.159731
O     -7.943016    0.485323   -1.252819
O      2.824719    0.500554   -1.072578
O     -5.807381   -0.086931   -1.108185
O      1.667116   -0.142411    0.694913
O     -1.277702   -1.486094   -0.909550
H      6.453769    0.960327   -1.367242
H      5.004802   -0.018787   -1.702064
H      4.798084    1.724364   -1.238663
H      6.360742    0.492587    2.224554
H      7.026242   -0.710918    1.030735
H      7.326889    1.029550    0.796026
H     -1.451388   -2.089904    1.434567
H      0.234606   -1.825323    1.986281
H     -0.196425   -3.302025    1.107057
H      0.379057   -3.304898   -1.193412
H      1.702680   -2.660970   -0.194488
H      1.329987   -1.834925   -1.796954
H     -4.998342    3.046316    0.893059
H     -7.341307    2.604537    0.112930
H      4.129544   -0.209771    1.938140
H     -2.687853    2.310177    0.981645
H     -0.367155    1.873880    0.223420
H     -0.523099    0.951544    1.695929
H     -3.782169   -1.699098   -1.592495
H      0.682555    0.231375   -1.011274
