72

C      0.556390   -4.148876   -0.417735
C     -3.865152    4.657602    1.095889
C     -7.771472    2.007425    1.459533
C      1.327010   -2.827621   -0.127951
C      5.952174    1.460765   -4.232502
C      4.901440    2.327723   -4.417079
C      5.988618    0.594973   -3.131190
C      3.883434    2.325555   -3.492825
C      5.400815   -1.155707   -0.295083
C     -3.610188   -1.827520    1.041085
C      5.441561   -0.778117    1.175369
C     -2.888460   -2.040929   -0.251691
C      1.850084   -0.112167    1.295011
C     -0.624028    0.046633    1.290189
C     -3.294929    1.875038    0.872583
C     -0.651398   -1.688174   -1.051955
C      0.306022   -1.818772    0.165788
C      0.660723   -0.422604    0.497918
C      4.944728    0.628324   -2.229953
C      4.722245   -0.097263   -1.082253
C     -3.946030   -0.387927    1.178736
C     -2.986916    0.554674    0.751385
C      3.875952    1.492420   -2.394584
C      3.161307   -0.392137    0.716471
C     -1.704554    0.067901    0.209678
C     -4.513297    2.307554    1.400105
C      3.498140    0.336284   -0.546624
C     -5.143663    0.014830    1.697491
C     -5.439450    1.387124    1.813009
N      4.275198   -0.046050    1.615696
N      3.033323    1.270041   -1.345262
N     -1.861677   -1.132753   -0.489979
O     -6.115510   -0.865240    2.131303
O     -4.786228    3.665386    1.505899
O     -6.662035    1.809125    2.341770
H      0.358753   -4.251135   -1.501730
H      1.179940   -5.000195   -0.059774
H     -0.356434   -4.122017    0.192519
H     -2.927879    4.476421    1.695550
H     -4.254320    5.671162    1.200342
H     -3.577373    4.393959    0.038105
H     -7.556647    2.798686    0.713440
H     -8.007273    1.077262    0.896408
H     -8.608697    2.370719    2.080979
H      1.955770   -2.702453   -1.005901
H      1.854130   -3.092650    0.821250
H      6.793041    1.394495   -4.910067
H      4.894373    2.998131   -5.289035
H      6.797538   -0.089698   -2.967341
H      3.061936    2.998235   -3.631558
H      6.452261   -1.208725   -0.651023
H      4.958504   -2.136054   -0.475409
H     -4.526222   -2.435314    1.093631
H     -2.974812   -2.141705    1.902715
H      5.559911   -1.677735    1.798594
H      6.303278   -0.094952    1.306791
H     -3.677747   -1.887097   -1.060675
H     -2.573033   -3.121548   -0.266348
H      1.774404   -0.682962    2.279977
H      1.820849    0.967874    1.663734
H     -0.486348    1.045258    1.680563
H     -0.814432   -0.762041    1.997094
H     -2.611766    2.653435    0.566195
H     -0.868748   -2.647827   -1.508370
H     -0.195030   -0.928687   -1.703588
H     -0.342373   -2.254723    0.996826
H      0.623470    0.209278   -0.402525
H      3.279427   -1.458675    0.463265
H     -1.316344    0.836842   -0.533372
H      4.036837   -0.212976    2.605300
H      2.140140    1.786022   -1.202816
H     -6.083259   -1.856129    2.132814
