49

C     -0.922937   -3.919595   -0.649934
C      5.385319    1.468633   -0.346223
C      0.920200    2.276945    2.943949
C     -1.121161    1.495303   -0.804880
C     -1.785307    2.645082   -0.376200
C      1.963801   -2.010093   -1.696775
C      1.360934   -3.204323   -0.988931
C      3.094795   -0.120220   -0.565956
C      0.942672    0.268430    1.017991
C     -5.115133    2.797312    1.111145
C      2.006756   -0.915465   -0.709140
C     -1.708440    0.248706   -0.774585
C      0.884679   -0.753865    0.076863
C     -3.072355    2.546805    0.095145
C      3.155481    0.908728    0.379434
C      2.042922    1.081172    1.171444
C     -3.004539    0.156785   -0.302835
C     -0.284149   -1.646950   -0.095049
C     -1.263061   -1.116561   -1.098697
C     -3.671662    1.313728    0.129422
C     -3.417326   -1.226945   -0.447881
N      0.114056   -3.002397   -0.362082
O     -4.577306   -1.629330   -0.089508
O      4.288327    1.706480    0.499622
O      2.062416    2.093134    2.124489
O     -3.986760    3.463914    0.583968
O     -4.943361    1.476817    0.635126
O     -2.399380   -1.955454   -0.999991
H     -0.482296   -4.955318   -0.537219
H     -1.312936   -3.901346   -1.683029
H     -1.717112   -3.880998    0.123395
H      6.155509    2.268809   -0.228259
H      5.106249    1.486226   -1.421539
H      5.890342    0.499417   -0.141245
H      0.811121    1.415027    3.632362
H      0.002837    2.332676    2.317069
H      0.996964    3.176324    3.572775
H     -0.115525    1.646067   -1.182306
H     -1.276870    3.597620   -0.421228
H      2.991931   -2.333741   -1.991584
H      1.392614   -1.719297   -2.610167
H      1.250490   -4.005006   -1.749344
H      2.147470   -3.575873   -0.281903
H      3.999916   -0.224733   -1.176124
H      0.061606    0.402048    1.642409
H     -6.067482    3.226643    0.711696
H     -5.115562    2.854720    2.203092
H     -0.813865   -1.659324    0.893077
H     -0.854879   -1.096714   -2.131856
