116

C      2.274724   -3.593462   -1.815640
C     -1.253371    1.317788    0.482197
C     -4.697829   -1.545623   -1.227953
C     -2.601629    0.542378   -2.870558
C     -2.520497   -1.136191    0.928709
C      0.977286    0.378421   -0.489457
C     -1.605121    1.150047   -1.903430
C     -3.958865    0.536170   -2.200256
C     -1.313151   -2.024696    1.012971
C      2.190895   -0.467031   -0.881937
C      0.129597   -2.927526   -0.747208
C      4.339245    3.591774   -1.346384
C     -9.560990    2.662435   -0.993642
C      4.078766   -4.297533    2.204562
C      1.093013   -1.718889    0.987200
C      1.594606   -2.835783   -0.970675
C      5.596207    2.748233   -1.382837
C     -8.727828    2.948989    0.251383
C      4.815787   -3.048201    2.549173
C     -2.607891   -0.594568   -0.483557
C     -0.223534   -0.515129   -0.711505
C      6.434452    3.101496   -0.191590
C     -9.412870    2.450247    1.490320
C      6.145196   -3.034889    1.819366
C      7.767793    2.432168   -0.326462
C     -9.196186    1.005279    1.785284
C      6.478253   -1.572476    1.569533
C      7.595477    1.122447   -1.027352
C     -8.098344    0.418147    0.937455
C      5.458307   -1.080016    0.549755
C      6.206462    0.551408   -0.924614
C     -7.007277    1.417732    0.645753
C      4.096757   -1.330862    1.137847
C     -4.821484    0.445159    0.082140
C     -1.478923    0.342400   -0.645885
C     -3.963442   -0.209357   -0.895749
C     -0.190710   -1.705915    0.137327
C      2.146141   -1.745560   -0.077410
O      3.494931    3.225647   -0.318900
O    -10.885785    3.048048   -0.786195
O      4.872043   -5.439557    2.372222
O      6.625157    4.481162   -0.213260
O     -8.985793    3.274650    2.547434
O      7.146717   -3.639237    2.547983
O      8.429986    2.293018    0.914524
O    -10.352715    0.235887    1.660494
O      7.767569   -1.397394    1.135771
O      7.784161    1.396440   -2.407316
O     -7.496116   -0.598881    1.715998
O     -4.420321    0.714705    1.226002
O      5.346297    1.416787   -1.554311
O     -7.421703    2.590609    0.106464
O      4.123734   -1.883754    2.417137
O      5.759066    0.246254    0.316859
O     -6.118236    0.779329   -0.260026
O      3.363884   -2.199115    0.348739
H      3.344916   -3.450997   -1.908979
H      1.824551   -4.359857   -2.430738
H     -0.444859    2.015987    0.089499
H     -0.797995    0.807165    1.354257
H     -2.089071    1.978921    0.702973
H     -4.233622   -2.018573   -2.113148
H     -5.729105   -1.263339   -1.521003
H     -4.757689   -2.184546   -0.346644
H     -2.648997    1.231886   -3.737926
H     -2.333051   -0.466045   -3.184543
H     -2.426440   -0.329861    1.681178
H     -3.471855   -1.670190    1.146977
H      1.071649    0.750810    0.547746
H      0.977280    1.261527   -1.154636
H     -0.664899    1.340523   -2.427472
H     -2.029393    2.152712   -1.638309
H     -4.698924    0.147583   -2.938596
H     -4.285614    1.588250   -1.997480
H     -1.684462   -3.070420    0.832846
H     -1.021987   -2.041595    2.106339
H      2.065936   -0.696696   -1.959062
H      3.124286    0.083928   -0.758921
H     -0.095445   -3.829836   -0.148013
H     -0.455347   -2.883948   -1.677208
H      3.830104    3.616788   -2.334322
H      4.663950    4.642355   -1.156469
H     -9.472563    1.611991   -1.331406
H     -9.200035    3.291930   -1.854581
H      3.678226   -4.348990    1.189087
H      3.196051   -4.449590    2.893349
H      1.145297   -0.916644    1.707470
H      1.091556   -2.738934    1.460631
H      6.173143    3.098003   -2.287822
H     -8.742410    4.077858    0.335639
H      5.098160   -3.135415    3.640849
H     -2.341190   -1.506789   -1.125905
H     -0.156267   -0.787322   -1.810901
H      5.932907    2.881394    0.772816
H    -10.512022    2.610700    1.330938
H      6.094793   -3.524196    0.826648
H      8.430136    3.138048   -0.909548
H     -8.880144    0.934131    2.866342
H      6.315242   -1.000399    2.519877
H      8.404411    0.442685   -0.768581
H     -8.471391   -0.095165    0.020747
H      5.624747   -1.722600   -0.342775
H      6.229491   -0.398848   -1.521498
H     -6.451406    1.573533    1.597702
H      3.600349   -0.340486    1.279257
H      3.823250    3.676828    0.511362
H    -11.491403    2.306470   -1.088556
H      5.178982   -5.810200    1.498798
H      7.549970    4.654350    0.088642
H     -9.654559    3.997568    2.641752
H      7.058415   -3.300308    3.496225
H      9.358589    2.021664    0.667884
H    -10.042501   -0.682822    1.410146
H      8.346179   -0.948385    1.808643
H      7.495368    0.629936   -2.950164
H     -6.655191   -0.916137    1.338625
