36

C     -1.836523    0.127659   -1.704314
C     -1.580058    1.462359    0.162023
C     -3.425412    0.094171   -0.015716
C      3.355324   -1.138295   -1.514167
C      4.214328   -0.074532   -1.412085
C      2.207914   -1.187300   -0.730295
C      3.955169    0.957847   -0.535788
C     -0.245694   -0.846784    1.303129
C      1.173117    1.243047    1.636718
C      0.895980    0.038226    1.026432
C      1.960470   -0.150390    0.141648
C      2.828122    0.926627    0.246180
C     -1.298298   -0.967645    0.281995
C     -2.334818   -1.951328    0.821562
N      2.331926    1.756468    1.155815
N     -1.973742    0.151763   -0.230692
O     -2.422143   -2.072861    2.065899
O     -3.151158   -2.686064    0.012495
H     -2.731386   -0.305393   -2.189507
H     -0.960709   -0.501719   -1.991733
H     -1.678537    1.120756   -2.125990
H     -0.695472    1.848002   -0.402544
H     -1.590645    1.675806    1.228981
H     -2.411876    2.141093   -0.239241
H     -3.976714   -0.253990   -0.914540
H     -3.727635   -0.520610    0.826435
H     -3.851195    1.117647    0.189493
H      3.565598   -1.951864   -2.211208
H      5.104376   -0.027462   -2.013545
H      1.543089   -2.037945   -0.828245
H      4.683945    1.775180   -0.506218
H     -0.641265   -0.691673    2.342939
H      0.221935   -1.882662    1.404101
H      0.585327    1.740855    2.387502
H     -0.838684   -1.589094   -0.552940
H      2.745344    2.660106    1.468488
