36

C     -3.238250    0.858747   -0.867324
C     -2.601106    0.639260    1.364010
C     -3.367868   -1.257375    0.137835
C      3.684884    1.951332    0.021476
C      4.722724    1.095084   -0.269767
C      2.460435    1.378489    0.278329
C      4.516485   -0.267783   -0.295330
C     -0.281400   -0.322666    0.782193
C      1.527413   -2.079150    0.358878
C      1.099298   -0.731783    0.510059
C      2.216598    0.014422    0.260033
C      3.291931   -0.828829   -0.037169
C     -1.228475   -0.260899   -0.367068
C     -0.887389    0.655340   -1.428710
N      2.817446   -2.088908    0.037465
N     -2.591017   -0.032156    0.066051
O     -1.443477    0.408442   -2.580053
O     -0.079806    1.752556   -1.447900
H     -4.125873    1.302007   -0.339138
H     -2.569972    1.712812   -1.084620
H     -3.573155    0.317016   -1.784161
H     -2.086044    1.603750    1.232711
H     -2.229314    0.023347    2.181081
H     -3.673560    0.903441    1.550352
H     -3.359274   -1.639177    1.185699
H     -3.023913   -2.030066   -0.572363
H     -4.422267   -0.988228   -0.074507
H      3.766276    3.026315    0.063528
H      5.685024    1.530592   -0.474350
H      1.621036    2.017521    0.534370
H      5.331751   -0.937479   -0.522158
H     -0.705216   -1.113187    1.481893
H     -0.332007    0.608786    1.412475
H      0.900176   -2.943566    0.485664
H     -1.250244   -1.345439   -0.781861
H      3.428152   -2.932569   -0.144021
