49

C      0.777262    0.057859   -1.984867
C     -2.087006   -0.398289    1.754206
C     -0.691086   -2.232807   -0.874077
C      5.142992   -0.062482    1.011231
C     -1.976645   -1.761013   -0.315121
C      5.680506    0.566996    2.119198
C      1.522057    0.570863    0.272060
C      3.687836    1.313358    1.917002
C      3.856146    0.419880    0.881122
C      0.446768   -1.559902   -0.155167
C      2.849773    0.055032   -0.161575
C     -1.428026    1.409946   -1.376603
C     -2.321081    2.449448   -0.789731
C     -0.934578    0.535093   -0.216907
C     -3.368019    1.712274    0.050591
C      1.761456   -2.097725   -0.594774
C     -3.317520    0.032091   -1.706114
C      0.383721   -0.089576   -0.508139
C     -2.006681   -0.384215    0.233183
C     -3.346449    0.222486   -0.227068
O      1.821112   -3.183357   -1.222662
O     -4.210916   -0.590806   -2.324981
O     -4.420700   -0.367859    0.381661
O      4.796267    1.365938    2.622556
O      2.888683   -1.352849   -0.280821
O     -3.655115    2.538352   -1.036939
O     -2.200085    0.619025   -2.300475
H      1.586794   -0.701685   -2.168586
H      1.251412    1.041656   -2.177336
H     -0.039138   -0.196367   -2.659546
H     -1.507739    0.450322    2.178376
H     -1.667582   -1.374879    2.112013
H     -3.120116   -0.306658    2.123355
H     -0.564570   -2.051822   -1.959591
H     -0.596977   -3.331563   -0.734485
H      5.615670   -0.781035    0.372579
H     -2.771594   -1.958610   -1.093839
H     -2.260078   -2.468844    0.519668
H      6.684578    0.434639    2.530106
H      1.482685    1.664600    0.072270
H      1.364213    0.316186    1.331796
H      2.815035    1.901842    2.160102
H      0.402771   -1.651545    0.930123
H      3.187994    0.515770   -1.099025
H     -0.609302    1.845397   -1.947904
H     -1.833869    3.338701   -0.350554
H     -0.760667    1.273311    0.624001
H     -3.480883    2.083218    1.074064
H     -4.829307    0.169606    1.107271
