40

C      1.261668    1.956938   -0.599763
C     -5.490505    0.541163   -0.025283
C      5.466766   -0.764571    0.165058
C     -5.196742    1.865096    0.146960
C      5.198646    0.609255    0.129393
C     -4.466068   -0.382290   -0.012366
C      4.401996   -1.631168    0.137231
C     -3.890500    2.267181    0.330997
C      3.902004    1.070341    0.068543
C     -1.659984   -2.076298    0.114979
C     -0.431912   -2.184173   -0.717951
C     -3.153658    0.035971    0.174054
C     -1.944236   -0.610382    0.236374
C      3.113587   -1.163201    0.076321
C     -2.840841    1.377425    0.350218
C      2.820050    0.186489    0.040759
C     -0.905191    0.292014    0.444345
C      0.463299   -0.196186    0.546780
C      1.968082   -2.064397    0.026409
N     -1.488855    1.494065    0.508946
N      1.478188    0.676342   -0.012969
N      0.651284   -1.495605   -0.054768
O      2.072764   -3.303274    0.049773
H      0.335778    2.024158   -1.205545
H      2.124621    2.248028   -1.239194
H      1.247920    2.717160    0.227442
H     -6.508413    0.207180   -0.170892
H      6.479995   -1.138756    0.213118
H     -6.009587    2.605341    0.137510
H      6.032552    1.297946    0.150742
H     -4.662165   -1.447181   -0.146565
H      4.587595   -2.683426    0.163619
H     -3.674670    3.324200    0.466494
H      3.750825    2.140263    0.041370
H     -1.437569   -2.508372    1.118166
H     -2.470823   -2.616455   -0.371109
H     -0.164012   -3.219513   -0.996759
H     -0.610363   -1.612972   -1.676463
H      0.726482   -0.278643    1.650028
H     -1.078009    2.440306    0.657810
