51

C      5.188465    1.277935    0.085636
C      5.444800   -1.121683   -0.229408
C     -3.670377    1.243217   -1.511641
C     -3.828678    1.142698    0.911929
C     -1.561610   -0.785649    1.883759
C     -3.026476   -2.110886   -0.120080
C      0.229497    1.721295   -0.560975
C     -1.134023    1.713840    0.092856
C     -3.838821   -0.937457   -0.479331
C     -1.537921   -1.966949   -0.308438
C      4.713867   -0.058874    0.566516
C      0.982327    0.562458    0.013054
C     -1.762307    0.408028   -0.307812
C      3.273369   -0.188984    0.518102
C      0.354425   -0.501831    0.442599
C      2.461935    0.719462    0.052040
C      2.654745   -1.444289    1.033653
C      1.206657   -1.559267    0.978199
C     -3.245444    0.414053   -0.278822
C     -1.103350   -0.735256    0.442210
O      2.957935    1.939529   -0.457242
O      3.377857   -2.367169    1.499600
O      0.737797   -2.647444    1.429959
H      4.859897    2.129108    0.717225
H      5.075713    1.436820   -1.005193
H      6.333614    1.330588    0.209605
H      4.833121   -1.536190   -1.052107
H      6.367008   -0.712380   -0.691822
H      5.768311   -1.902068    0.489735
H     -4.759679    1.075465   -1.643147
H     -3.525267    2.314860   -1.318008
H     -3.147747    0.886593   -2.415093
H     -4.591388    0.500970    1.436473
H     -4.417404    2.055396    0.620853
H     -3.052842    1.527889    1.606520
H     -1.220214   -1.756397    2.297586
H     -2.661833   -0.801380    1.989589
H     -1.064112    0.006670    2.440792
H     -3.254312   -2.440892    0.936320
H     -3.338802   -2.983919   -0.742175
H      0.758253    2.671776   -0.404725
H      0.068262    1.492313   -1.640903
H     -1.714588    2.553618   -0.321400
H     -1.043311    1.811383    1.203379
H     -4.255931   -1.090944   -1.519795
H     -4.772873   -0.966920    0.160591
H     -1.071034   -2.898657   -0.007449
H     -1.373475   -1.756118   -1.391877
H      5.008279   -0.135008    1.664940
H     -1.472714    0.237431   -1.390142
H      2.790400    2.233217   -1.396666
