37

C      1.625818   -2.885587   -0.303415
C     -2.533084    3.029894   -0.452911
C     -1.267823    2.522095   -0.267624
C     -3.657303    2.188221   -0.480115
C      1.140864    1.155598    0.580739
C     -0.923683   -1.726381    0.248642
C     -3.559358   -1.393258   -0.080144
C      2.287433   -0.948895    0.874781
C     -2.211978   -1.025548    0.018909
C      2.495775    0.532699    0.802240
C     -1.157998    1.163336   -0.111924
C      0.139911    0.467600    0.070104
C     -3.525322    0.815115   -0.319894
C      0.191809   -0.952303   -0.358155
C     -2.251234    0.332558   -0.136034
C      3.469845    0.928802   -0.241583
N      4.035504    0.074504   -0.989879
N     -4.316365   -0.269039   -0.282384
N      1.483520   -1.479254   -0.165902
O      3.775295    2.276598   -0.408516
H      1.745582   -3.205627   -1.363358
H      0.847244   -3.498119    0.150352
H      2.595142   -3.184388    0.191358
H     -2.732566    4.089268   -0.586222
H     -0.420030    3.156125   -0.245505
H     -4.640795    2.588637   -0.625170
H      0.966614    2.189894    0.841674
H     -0.731516   -1.773393    1.358574
H     -1.041381   -2.743937   -0.159363
H     -3.895268   -2.415733   -0.002300
H      3.311816   -1.405789    0.758393
H      1.917844   -1.277126    1.851401
H      2.835364    0.891175    1.789093
H     -0.002737   -0.976428   -1.478690
H      4.713366    0.389496   -1.711121
H     -5.340514   -0.221662   -0.393654
H      4.630210    2.590854   -0.873373
