46

C     -3.328515    2.809358    0.110985
C     -2.470066    1.951643   -0.735193
C      4.847230   -1.434202    0.110461
C      4.701994   -0.610565    1.206917
C     -2.117029   -1.260597    1.020418
C      3.782585   -1.590580   -0.769224
C      3.505333    0.076263    1.459978
C      0.842859   -1.475273   -2.405691
C     -2.507183    0.155656    0.877153
C     -1.264408   -1.844281   -0.046775
C     -0.628192   -1.648510   -2.350429
C     -0.744597    1.906996    0.951815
C      2.604059   -0.913649   -0.519268
C      1.409882   -0.867259   -1.186819
C      2.462795   -0.091236    0.577858
C      0.518147    1.345314    1.457149
C      0.597672   -0.022952   -0.471184
C     -0.778333    0.246529   -0.932605
C     -1.573323    1.010302    0.075136
N     -1.325041   -1.067846   -1.251798
N      1.212443    0.448494    0.586082
O      0.238523    0.647895    2.655424
H     -4.401802    2.842114   -0.204885
H     -3.327490    2.569996    1.188248
H     -2.946670    3.864666    0.037886
H     -1.793896    2.541447   -1.389653
H     -3.109737    1.279873   -1.373238
H      5.794475   -1.931904   -0.023671
H      5.524810   -0.468899    1.916755
H     -3.037463   -1.912165    1.102489
H     -1.623917   -1.386495    2.022142
H      3.861371   -2.228088   -1.638555
H      3.391056    0.714633    2.308767
H      1.351007   -2.448414   -2.561824
H      1.103848   -0.862195   -3.305818
H     -3.568940    0.187737    0.492546
H     -2.588167    0.645642    1.892233
H     -0.209772   -1.908570    0.350917
H     -1.540624   -2.907214   -0.254085
H     -0.848137   -2.756307   -2.315329
H     -1.104624   -1.294785   -3.286842
H     -1.376075    2.169850    1.838004
H     -0.509634    2.878417    0.424533
H      1.208401    2.180026    1.715346
H     -0.689275    0.773888   -1.919090
H      0.454418   -0.314752    2.562734
