52

C     -2.585249   -1.081010   -2.899026
C      2.065694   -3.227953    1.180414
C     -1.453053    2.516602    2.808357
C      2.303266    2.845192   -1.607537
C     -2.768653    2.736003    2.477535
C      3.242648    3.065056   -0.640630
C     -0.676627    1.621873    2.104399
C      1.438344    1.784734   -1.539567
C     -3.294587    2.033190    1.415845
C      3.347851    2.216448    0.441715
C     -1.342962   -1.463139    0.511625
C      0.996840   -1.305147   -1.220726
C     -2.091519   -1.961360   -0.717727
C      2.337621   -1.931364   -0.848785
C     -1.169496    0.901810    1.037544
C      1.499350    0.912783   -0.485198
C     -2.518304    1.134145    0.705980
C      2.467047    1.153887    0.491336
C     -1.568519    0.163518   -1.110511
C      1.461889   -0.884213    1.031286
C     -0.712346   -0.108178    0.082869
C      0.725182   -0.292195   -0.132774
N     -2.878875    0.339971   -0.415734
N      2.413778    0.144803    1.485809
N     -1.677230   -1.084984   -1.779235
N      2.304366   -1.958991    0.588529
H     -3.479231   -1.714867   -2.704108
H     -2.056479   -1.540333   -3.759814
H     -2.863222   -0.053611   -3.204892
H      1.609107   -3.963948    0.485270
H      3.038567   -3.623588    1.556358
H      1.387167   -3.134211    2.053186
H     -1.023625    3.069952    3.650691
H      2.194528    3.503716   -2.483328
H     -3.354378    3.435808    3.037847
H      3.927717    3.926007   -0.717012
H      0.334505    1.502048    2.419958
H      0.700647    1.628128   -2.355811
H     -4.348020    2.195030    1.136617
H      4.091126    2.387840    1.208917
H     -0.597887   -2.173952    0.857028
H     -2.045941   -1.290991    1.350337
H      1.120528   -0.863369   -2.223712
H      0.306295   -2.137396   -1.280806
H     -3.177511   -1.928378   -0.492502
H     -1.869058   -3.041884   -0.915552
H      2.427080   -2.974283   -1.210914
H      3.197940   -1.367286   -1.242902
H     -1.366045    1.040241   -1.697541
H      0.845592   -1.244609    1.857650
H     -3.797264   -0.009757   -0.669624
H      2.931408    0.102208    2.378865
