46

C     -2.908783   -1.928084   -1.364973
C     -3.107465   -0.933628   -0.280543
C      4.978272   -0.013477    0.072692
C      4.656507   -1.245946    0.608111
C     -1.364561    1.763244    1.479187
C      3.953434    0.779571   -0.400948
C      3.350196   -1.683242    0.673131
C      1.130746    2.244341   -1.368882
C     -2.306837    0.573880    1.423842
C     -1.560224    2.459693    0.147248
C     -0.288413    2.141238   -1.882659
C     -1.194721   -1.539806    1.110627
C      2.658905    0.341692   -0.334429
C      1.468846    0.933009   -0.732238
C      2.322490   -0.885611    0.197068
C      0.074177   -2.104987    0.529540
C      0.502106    0.031662   -0.417622
C     -0.964342    0.238436   -0.669804
C     -1.816618   -0.420153    0.354841
N     -1.103443    1.631481   -0.859016
N      0.993800   -1.070209    0.143059
O      0.702147   -2.812246    1.584250
H     -3.339965   -2.906000   -0.993855
H     -3.543867   -1.704921   -2.274120
H     -1.889825   -2.151078   -1.663266
H     -3.807221   -1.287123    0.521302
H     -3.642079   -0.047374   -0.733910
H      6.011635    0.327391    0.023591
H      5.481275   -1.864078    0.980019
H     -0.330302    1.358527    1.555972
H     -1.656056    2.370430    2.338062
H      4.154181    1.741572   -0.824134
H      3.102723   -2.648508    1.092944
H      1.848105    2.495166   -2.175957
H      1.110212    3.021049   -0.561346
H     -3.296245    0.983219    1.157583
H     -2.347577    0.128328    2.419387
H     -0.970356    3.396712    0.194652
H     -2.639396    2.730024    0.068621
H     -0.291032    1.426698   -2.752403
H     -0.658592    3.105291   -2.282866
H     -0.983612   -1.234988    2.176473
H     -1.925494   -2.364527    1.207532
H     -0.093025   -2.863872   -0.258329
H     -1.153426   -0.259498   -1.650930
H      0.683717   -2.253297    2.422495
