52

C      4.781120    0.701564    1.681506
C      4.681447   -0.209354   -0.828557
C     -0.871419   -0.582608   -1.931260
C     -3.650423    1.393730   -1.071645
C      3.665674    0.080700    1.376685
C     -2.774760   -1.788560    0.687677
C      0.324944    1.929699   -0.492426
C     -1.142152    1.935597   -0.239653
C      1.375282   -1.432624   -0.819961
C     -1.383398   -1.858135    0.164999
C     -3.664647   -0.872464   -0.083554
C      2.733228   -1.525153   -0.159921
C      2.570769    0.953244   -0.658324
C      1.116453    0.891847   -0.391891
C      0.564427   -0.435010    0.004362
C     -1.621468    0.588980    0.168361
C     -3.722663    1.093384    1.287234
C      3.341532   -0.175132   -0.074093
C     -0.891997   -0.570575   -0.447263
C     -3.120879    0.541968    0.033613
O     -4.504460    2.078268    1.296958
O     -3.448657    0.540979    2.533149
H      5.446398    1.018170    0.893383
H      4.999258    0.877850    2.732054
H      4.440552   -0.732923   -1.798774
H      5.447946   -0.763168   -0.262001
H      4.984603    0.819840   -1.102035
H     -0.317722    0.310063   -2.282485
H     -0.344485   -1.536957   -2.233187
H     -1.859344   -0.653824   -2.419885
H     -4.740736    1.125133   -1.186563
H     -3.682703    2.477156   -0.755572
H     -3.159981    1.317523   -2.029236
H      2.939737   -0.272899    2.088650
H     -2.753303   -1.579722    1.768488
H     -3.214265   -2.825243    0.595544
H      0.821158    2.873642   -0.794499
H     -1.677584    2.365505   -1.106960
H     -1.291083    2.651374    0.620935
H      0.901091   -2.415597   -0.877546
H      1.577872   -0.993221   -1.841709
H     -1.297784   -2.637006   -0.640017
H     -0.728320   -2.227029    0.986639
H     -3.784740   -1.215011   -1.106523
H     -4.686794   -0.939411    0.390460
H      3.332895   -2.204506   -0.835100
H      2.660414   -2.026353    0.831955
H      2.771692    0.999444   -1.755604
H      2.946478    1.906043   -0.188299
H      0.698372   -0.684033    1.054519
H     -1.402119    0.500483    1.277964
H     -3.385455    1.184330    3.311107
