53

C      3.959069   -2.148822    1.517662
C      0.412468   -2.964326   -0.637053
C     -3.527124   -0.044298   -1.610252
C     -4.942004    0.034293    0.467187
C     -1.656630   -1.714200   -0.088568
C     -0.539386    2.327159    0.288367
C      1.511132   -1.555321    1.324075
C      1.191819    3.921779   -0.002040
C      2.764781   -1.498824    0.896538
C     -0.241581   -1.612504   -0.450616
C      0.802262    2.475249    0.185183
C     -1.132080    1.020364    0.150125
C     -2.491753   -0.838533    0.653777
C     -2.457644    0.642724    0.591789
C      2.877765   -0.667120   -0.342741
C      1.893883    1.457981    0.234737
C     -0.276001    0.135919    1.061327
C     -3.526640   -0.014985   -0.129729
C      0.683217   -0.790250    0.433203
C      1.583431    0.135603   -0.390058
O      0.092876    4.742732   -0.023097
O      3.097571   -1.400324   -1.479983
O      2.943781    2.001186   -0.525763
O     -0.435674    0.248459    2.223474
O      1.119206    0.322729   -1.666123
H      3.646690   -3.036798    2.094867
H      4.688618   -2.482152    0.767017
H      4.445482   -1.378354    2.140218
H      0.919132   -3.065758   -1.615009
H     -0.430960   -3.717492   -0.654110
H      1.052743   -3.182811    0.217322
H     -4.329142    0.682110   -1.939456
H     -3.834401   -1.011253   -2.055140
H     -2.621784    0.274365   -2.124568
H     -5.549691    0.652669   -0.191199
H     -5.310940   -0.991918    0.478530
H     -4.891699    0.412503    1.511171
H     -2.188935   -1.967660   -1.071673
H     -1.735952   -2.755620    0.389046
H     -1.119196    3.219611    0.474599
H      1.221454   -2.102472    2.204570
H      1.955326    4.225943    0.731111
H      1.642746    3.956911   -1.035290
H     -0.168681   -1.110983   -1.464132
H     -1.058834    0.712403   -0.914539
H     -2.906846   -1.213382    1.645478
H     -2.780843    1.210748    1.516584
H      3.765661   -0.013876   -0.187199
H      2.308276    1.359716    1.266557
H      0.248598    5.539839   -0.613372
H      3.940981   -1.174982   -1.946956
H      3.509348    2.602037   -0.010231
H      1.876106    0.139988   -2.295616
