55

C      1.720373   -3.232974   -0.906576
C     -3.221403   -0.722012    1.380346
C     -2.044789   -2.486799   -1.342545
C      3.007468    3.214103    1.378668
C     -2.716677    2.702622   -1.201649
C      4.241484    2.640172    1.341120
C     -3.480596    1.774251   -1.860098
C      1.907314    2.524080    0.948724
C     -1.678868    2.297264   -0.389970
C      4.332451    1.344220    0.855465
C     -3.197573    0.440760   -1.699009
C      0.923993    0.227411   -1.613745
C     -0.262104    0.534714    2.006705
C      1.156033   -1.181965   -2.057127
C     -1.313456   -0.297964    2.724072
C      1.938953    1.221030    0.450598
C     -1.376035    0.961905   -0.214041
C      3.212727    0.665507    0.427325
C     -2.176787    0.035821   -0.900613
C      1.734975   -1.080391    0.191655
C     -0.973690   -1.166547    0.601438
C      0.978498    0.252687   -0.079656
C     -0.367171    0.224448    0.546763
N      3.130511   -0.670634   -0.071877
N      1.342543   -1.882379   -0.866590
N     -1.893479   -1.154154    1.717223
N     -1.755071   -1.295060   -0.606030
H      2.781463   -3.445534   -0.728213
H      1.459477   -3.647256   -1.917528
H      1.115221   -3.814555   -0.179275
H     -3.853150   -0.947216    2.289838
H     -3.311743    0.383082    1.256716
H     -3.656676   -1.303311    0.568520
H     -1.961788   -2.225367   -2.436786
H     -1.321421   -3.291455   -1.135163
H     -3.087142   -2.816527   -1.202914
H      2.917143    4.225128    1.755102
H     -2.910727    3.763627   -1.304436
H      5.109686    3.187303    1.680982
H     -4.300288    2.116933   -2.500483
H      0.974664    3.025217    1.010407
H     -1.109232    3.089639    0.115786
H      5.329436    0.913086    0.837804
H     -3.815883   -0.298113   -2.232291
H     -0.056697    0.561026   -2.000273
H      1.758137    0.863920   -2.021672
H     -0.502170    1.600123    2.251635
H      0.711970    0.226839    2.435091
H      2.083429   -1.258824   -2.689332
H      0.345441   -1.581703   -2.695086
H     -2.127175    0.323514    3.148976
H     -0.901363   -0.900692    3.536949
H      1.576980   -1.444272    1.193869
H     -0.318732   -1.992452    0.716057
H      3.901514   -1.202276   -0.514861
