51

C      5.321530   -0.280193    0.909931
C      4.983576   -0.533478   -1.409494
C     -3.900788   -0.922614   -1.434812
C     -3.345028   -1.761063    0.796320
C     -1.218734    0.092234    1.979264
C     -3.212191    1.875900    0.669546
C      0.241652   -1.843587   -0.055256
C     -1.019959   -1.549067   -0.851717
C     -3.907207    0.582713    0.532586
C     -1.736029    1.922346    0.473489
C      2.414598   -0.646712   -0.030872
C      1.141471    1.756050    0.233846
C      4.646935    0.512049   -0.276347
C      1.052593   -0.596539    0.106574
C      3.180348    0.487367   -0.041679
C      0.371771    0.620160    0.249068
C      2.516949    1.682948    0.091388
C     -1.756160   -0.299896   -0.473523
C     -3.192016   -0.548766   -0.107183
C     -1.064812    0.542505    0.517235
O      3.310147    2.869867    0.072342
H      6.400736   -0.294951    0.708034
H      5.114899    0.340569    1.828576
H      4.928834   -1.294382    0.996907
H      4.593778   -0.267037   -2.373876
H      6.116213   -0.487440   -1.436181
H      4.768377   -1.536735   -1.009257
H     -3.878538   -1.990546   -1.619025
H     -3.486859   -0.351306   -2.279886
H     -4.995522   -0.647789   -1.353769
H     -3.978517   -2.557072    0.343739
H     -2.378686   -2.217467    1.062552
H     -3.829707   -1.531045    1.761653
H     -0.612108    0.868581    2.551424
H     -0.812269   -0.842085    2.231304
H     -2.233497    0.182122    2.324976
H     -3.390996    2.282629    1.685717
H     -3.630430    2.664040   -0.006606
H      0.871583   -2.516605   -0.713773
H      0.053787   -2.406855    0.847568
H     -0.692033   -1.529029   -1.946071
H     -1.663108   -2.446957   -0.780490
H     -4.839889    0.809273   -0.094854
H     -4.412702    0.264160    1.497398
H     -1.241216    2.538950    1.241313
H     -1.443546    2.398226   -0.509937
H      2.934564   -1.607451   -0.131989
H      0.660941    2.711093    0.324835
H      5.129254    1.410663   -0.484513
H     -1.830712    0.302314   -1.420721
H      2.948720    3.789912    0.165257
