53

C     -4.022539   -2.177396    1.128150
C     -0.403609   -2.823909   -0.987005
C      3.282579    0.127021   -1.624868
C      4.992119   -0.118991    0.208315
C      1.653922   -1.815239   -0.099401
C      0.677027    2.233672    0.646914
C     -1.536375   -1.663902    1.096331
C     -0.991326    3.913275    0.546273
C     -2.770278   -1.494779    0.651096
C      0.289958   -1.536482   -0.604088
C     -0.638244    2.466612    0.557660
C      1.232960    0.940589    0.387176
C      2.551003   -1.001032    0.624826
C      2.548696    0.471020    0.747631
C     -2.811674   -0.491035   -0.442247
C     -1.756021    1.475650    0.477552
C      0.332576   -0.037108    1.132878
C      3.532716   -0.130771   -0.182409
C     -0.649831   -0.817579    0.362979
C     -1.483271    0.260878   -0.347646
O     -1.665563    4.203433   -0.658321
O     -3.055940   -1.008744   -1.687353
O     -2.836445    2.144114   -0.093127
O      0.438489   -0.150362    2.306836
O     -0.988532    0.550044   -1.594351
H     -4.667507   -2.401641    0.262263
H     -4.512801   -1.458838    1.812055
H     -3.761096   -3.141471    1.636771
H     -0.933813   -2.721551   -1.936726
H     -1.084166   -3.166200   -0.162164
H      0.368265   -3.651384   -1.030717
H      4.231595    0.114234   -2.229355
H      2.922513    1.193227   -1.726915
H      2.561566   -0.508313   -2.122092
H      5.131598   -0.745523    1.114755
H      5.345075    0.897113    0.429805
H      5.601235   -0.569994   -0.605181
H      1.522019   -2.818086    0.440939
H      2.199044   -2.190898   -1.033862
H      1.338763    3.037597    0.921181
H     -1.291147   -2.349842    1.895439
H     -1.685969    4.095616    1.390976
H     -0.082861    4.521053    0.595721
H      0.275215   -0.904821   -1.528449
H      1.190858    0.778244   -0.735300
H      3.108980   -1.504772    1.483134
H      2.990036    0.932190    1.654779
H     -3.674561    0.185197   -0.204934
H     -2.013539    1.143945    1.503954
H     -2.056621    5.102011   -0.638493
H     -3.896420   -0.677819   -2.108362
H     -3.279379    2.682108    0.592135
H     -1.769281    0.609636   -2.225163
