55

C      4.782209   -1.843485   -1.821299
C      5.026876    1.966980    2.173265
C     -3.845683   -0.376738    0.165094
C     -0.346569   -2.141154    0.134718
C     -0.878314   -2.945588   -1.002487
C     -4.293222    0.795649    1.006480
C     -1.319761    0.348606   -2.412179
C      2.443487   -0.860519   -0.702542
C      2.576807    1.023317    1.270769
C     -1.939167    2.040460    2.158960
C     -2.816579   -1.732068   -1.457737
C     -3.029497   -0.410097   -0.881295
C     -2.366368    0.838855   -1.423469
C      1.257881   -0.398086   -0.173089
C      1.333735    0.552213    0.820977
C      3.683576   -0.395813   -0.260066
C      3.730429    0.551064    0.732879
C     -2.418826    2.179131    0.736466
C     -0.606932   -0.821302   -1.792948
C     -0.464185    1.856268    2.205675
C     -1.612064    1.400526   -0.265733
C     -0.927518    0.249198    0.454570
C     -0.184488   -0.690142   -0.393933
N     -1.460043   -1.970967   -1.893509
N      0.083416    0.959942    1.258681
O      0.280355    2.460479    3.041206
O      4.867583   -0.867650   -0.799341
O      4.999636    0.990566    1.148548
O     -3.780019    1.988451    0.604276
H      5.783803   -2.190698   -2.129736
H      4.171584   -1.494353   -2.670733
H      4.224486   -2.715070   -1.370013
H      4.613201    2.939690    1.830782
H      4.421795    1.665234    3.052371
H      6.045275    2.160394    2.543959
H     -4.269081   -1.315765    0.486136
H      0.628485   -2.569032    0.423758
H     -0.989675   -2.145324    1.031927
H     -0.064043   -3.453071   -1.577791
H     -1.612736   -3.674407   -0.647627
H     -4.221513    0.572524    2.083204
H     -5.405062    0.856928    0.803526
H     -0.661146    1.142655   -2.770881
H     -1.883556   -0.036938   -3.290624
H      2.393985   -1.599758   -1.477272
H      2.644849    1.773728    2.056565
H     -2.373507    1.171675    2.688552
H     -2.184904    2.980019    2.719738
H     -3.489120   -1.849800   -2.343091
H     -3.145746   -2.499265   -0.727357
H     -3.087547    1.529150   -1.861995
H     -2.249592    3.265165    0.482162
H      0.288068   -1.032058   -2.448209
H     -0.773723    2.022316   -0.698818
H     -1.581336   -0.252036    1.178533
