55

C      4.399433   -3.016503    0.891634
C      5.423304    2.384649   -0.020621
C     -3.766974   -0.217971   -1.061309
C     -0.387794   -1.601092   -1.258041
C     -0.722613   -2.961013   -0.658137
C     -4.165861    1.214037   -1.320040
C     -1.756494   -0.761199    1.998481
C      2.282118   -1.223435    0.339167
C      2.763744    1.372823   -0.099965
C     -1.494562    3.418132   -0.334926
C     -2.894465   -2.168495   -0.064746
C     -3.134815   -0.724348   -0.007856
C     -2.691332    0.122896    1.164413
C      1.211742   -0.411535    0.077659
C      1.454239    0.938353   -0.151057
C      3.575408   -0.779899    0.387177
C      3.830228    0.548103    0.163272
C     -2.502185    2.313748   -0.110900
C     -0.850374   -1.474106    1.036756
C     -0.117187    2.939756   -0.605432
C     -1.835942    1.189663    0.597882
C     -0.825752    0.614316   -0.372209
C     -0.243596   -0.684648   -0.032408
N     -1.593814   -2.567162    0.427220
N      0.231689    1.601030   -0.388916
O      0.731959    3.788221   -1.039259
O      4.632890   -1.641120    0.656651
O      5.134023    0.999758    0.210538
O     -3.013652    1.953357   -1.355742
H      4.180261   -3.510253   -0.080777
H      5.324444   -3.444561    1.352727
H      3.590160   -3.192963    1.628182
H      4.893979    2.691610   -0.964956
H      6.507193    2.545349   -0.117734
H      5.008835    2.983265    0.790160
H     -4.032147   -0.931337   -1.841046
H      0.535996   -1.675142   -1.842535
H     -1.223669   -1.304765   -1.903835
H      0.166253   -3.479067   -0.283763
H     -1.270479   -3.591347   -1.380672
H     -4.793920    1.494152   -0.426156
H     -4.720256    1.281088   -2.254861
H     -1.226004   -0.184739    2.768547
H     -2.379294   -1.517158    2.520976
H      2.128328   -2.287151    0.523634
H      2.992899    2.426850   -0.274906
H     -1.493443    4.145206    0.506659
H     -1.772364    4.042518   -1.235407
H     -3.658101   -2.683589    0.549173
H     -2.995112   -2.513012   -1.109374
H     -3.538397    0.492611    1.738065
H     -3.301425    2.739921    0.551331
H     -0.045079   -1.958781    1.648941
H     -1.249601    1.628068    1.450459
H     -1.302421    0.636911   -1.382118
