84

C      8.409046   -0.496446    0.687286
C      8.244100    2.046136    0.734032
C     -6.029664   -0.280768    1.699272
C     -5.806695    1.760597    0.401688
C     -3.303971    1.501257   -1.473207
C     -0.380388   -2.240016    0.753586
C     -0.691880    1.560272    0.413209
C      3.531294    1.097131    0.057227
C      5.978862   -0.665504   -0.777678
C      6.530685    0.611934   -0.374137
C      0.345647   -0.930744   -1.711239
C     -0.996301   -0.302327   -1.859964
C      2.224998   -1.214135    1.443425
C     -3.345244    0.750620    1.590932
C     -5.400583   -0.496903   -1.978276
C      4.676415   -1.103365   -0.251624
C     -3.935831   -0.790384   -1.843409
C      0.925147   -0.577317    1.902233
C     -2.005126    0.101237    1.812913
C      7.680312    0.744351    0.321905
C      0.954534   -0.484560   -0.415764
C      2.253575   -1.079461   -0.064506
C     -3.990359    0.013902    0.438903
C     -1.867120   -0.391774   -0.650934
C     -6.163150   -0.381360   -0.714354
C     -5.437669    0.313841    0.405719
C     -3.234803    0.152530   -0.848550
C      0.028215   -0.804836    0.744807
C     -1.141453    0.114308    0.594457
C      3.472641   -0.279496   -0.508365
O     -7.337639    0.341373   -0.952763
O      3.321702   -0.107898   -1.918857
H      9.321915   -0.286674    1.278535
H      7.792657   -1.184204    1.316307
H      8.733112   -1.052087   -0.215862
H      9.341241    1.941708    0.862065
H      7.833901    2.377688    1.722219
H      8.066396    2.846665   -0.012774
H     -7.105352   -0.525162    1.510151
H     -5.519356   -1.234252    1.929573
H     -6.011265    0.450993    2.519509
H     -4.976301    2.461054    0.452849
H     -6.418662    2.016728   -0.513632
H     -6.497225    2.045049    1.251313
H     -2.988236    2.347083   -0.881568
H     -4.385773    1.686245   -1.739409
H     -2.783543    1.455089   -2.448317
H     -1.372252   -2.412683    1.246399
H      0.327954   -2.858275    1.385248
H     -0.421930   -2.745514   -0.204124
H     -0.649233    1.876346   -0.627743
H     -1.419344    2.267622    0.917470
H      0.256503    1.766986    0.969226
H      2.571381    1.415187    0.532160
H      3.726166    1.858557   -0.708225
H      4.293686    1.216939    0.857418
H      6.735025   -1.453953   -0.455135
H      6.045752   -0.729239   -1.900789
H      6.057600    1.542508   -0.625939
H      0.998887   -0.477494   -2.520889
H      0.391671   -2.006450   -1.906606
H     -1.514401   -0.892281   -2.674110
H     -0.893790    0.714309   -2.279612
H      3.103779   -0.756815    1.933872
H      2.266097   -2.297543    1.676555
H     -3.326570    1.829481    1.483520
H     -3.972165    0.507184    2.493860
H     -5.607116    0.360434   -2.684839
H     -5.824523   -1.385773   -2.537304
H      4.719006   -1.370554    0.848647
H      4.464860   -2.116533   -0.723432
H     -3.513143   -0.633350   -2.880896
H     -3.807188   -1.808005   -1.479610
H      1.025281    0.422697    2.285311
H      0.560534   -1.222761    2.748353
H     -1.477896    0.744576    2.578143
H     -2.166751   -0.859852    2.288038
H      1.078284    0.610495   -0.514296
H      2.384172   -2.075764   -0.555781
H     -3.898207   -1.081743    0.719868
H     -2.009341   -1.498607   -0.455523
H     -6.507458   -1.401276   -0.390228
H     -7.530636    0.323872   -1.915172
H      2.992502    0.799155   -2.134778
