56

C      6.894193    2.099614    2.176612
C      4.420037    0.062557   -2.081883
C     -1.506765   -0.454836    1.914591
C      5.663279    0.690246   -2.203336
C     -0.212842   -0.029176    1.675557
C     -1.549856   -1.405555   -0.294749
C      4.430811    0.474207    0.237023
C     -6.634007    2.192827   -0.310060
C     -5.680843    1.388755    1.690153
C     -4.273863   -2.034689   -0.088456
C      2.238982   -2.507666   -2.327755
C     -2.161263   -1.145472    0.910287
C      3.808962   -0.041944   -0.857111
C     -6.458380    2.314337    1.028918
C      6.304983    1.213560   -1.127645
C     -6.035579    1.139087   -1.029918
C     -4.591906   -0.878969   -0.967329
C      0.407638   -0.287302    0.466786
C     -3.539974   -1.602699    1.154435
C      5.695580    1.118212    0.144602
C     -0.253435   -0.979037   -0.534279
C     -5.073291    0.342571    1.042879
C      1.799984   -1.092039   -1.918148
C     -5.273668    0.247043   -0.332092
C      2.499703   -0.691151   -0.669393
O      1.887701   -3.326469   -1.239442
O     -7.057076    3.365200    1.736925
O      7.552124    1.845270   -1.237537
O     -6.223978    1.029757   -2.377439
O     -4.311471   -0.828438   -2.183045
O      6.312658    1.616908    1.153315
O     -4.299730   -0.565978    1.748970
O      0.406761   -1.206624   -1.711285
O      1.697568    0.118310    0.184568
H      7.757742    2.840769    2.011265
H      7.430335    1.331043    2.845433
H      6.250561    2.698347    2.916634
H      3.914436   -0.351264   -2.935400
H     -1.986140   -0.242560    2.879222
H      6.091660    0.739767   -3.197844
H      0.347674    0.514790    2.423020
H     -2.029041   -1.946054   -1.113860
H      3.971524    0.408014    1.228683
H     -7.232251    2.886203   -0.886756
H     -5.540737    1.486587    2.762268
H     -5.260632   -2.442376    0.270812
H     -3.793352   -2.831913   -0.660234
H      3.314540   -2.606676   -2.451019
H      1.683544   -2.786883   -3.233909
H     -3.581172   -2.475894    1.857349
H      1.915389   -0.383501   -2.766260
H      2.679849   -1.649446   -0.093583
H      2.677233   -3.729161   -0.801538
H     -7.622570    4.033401    1.238652
H      8.036429    1.947846   -2.095442
H     -5.908054    0.378544   -3.027386
