41

C     -3.990847    2.892254    0.297925
C     -2.188820    0.727634   -1.289769
C     -1.082210    0.048758   -1.431786
C      3.194566   -0.477704    0.730926
C     -2.210104    0.205957    1.164229
C      1.749378    0.219469   -1.457887
C      1.134971   -1.262523    1.939707
C     -0.819673   -2.312025    1.223554
C      5.271089    1.220471   -1.760822
C      1.819038   -0.672428    0.735584
C     -2.790514    0.961654    0.024110
C      1.114815   -0.312907   -0.379205
C      3.831195    0.062035   -0.365051
C      3.128589    0.427864   -1.494567
C     -0.742680   -0.044225    1.042569
C     -0.675499   -2.017600   -0.233903
C     -0.343684   -0.534599   -0.334735
N     -0.281434   -1.134775    1.875996
O     -1.930004   -2.233163   -0.835383
O     -2.703270    2.352849    0.263576
O      5.180521    0.363104   -0.637488
O      4.030913    0.934444   -2.419181
H     -3.957300    3.979697    0.483583
H     -4.548477    2.342313    1.071569
H     -4.504569    2.711135   -0.685888
H     -2.719371    1.156832   -2.177447
H     -0.707322   -0.078882   -2.444446
H      3.766231   -0.757236    1.605876
H     -2.359191    0.833098    2.090183
H     -2.798933   -0.719065    1.349940
H      1.222875    0.515567   -2.356017
H      1.496951   -2.313371    2.001899
H      1.538544   -0.759126    2.854288
H     -1.854066   -2.539988    1.533948
H     -0.193113   -3.180351    1.550964
H      6.137141    1.027750   -2.396120
H      5.267218    2.279577   -1.385387
H     -3.880418    0.691296   -0.069875
H     -0.199613    0.890087    1.296115
H      0.076586   -2.645324   -0.724768
H     -2.479511   -2.848553   -0.256818
