40

C     -1.202937    2.386508   -0.518920
C     -3.575599    0.535673   -0.298979
C     -2.949254    1.469501    0.721331
C     -2.832233   -1.896266   -0.108946
C      1.544844    0.761637    1.021663
C      3.260216   -0.420962   -0.759667
C      4.678528    2.602113    0.682651
C     -2.669904   -0.613217   -0.188842
C      1.081905   -0.329947    0.291873
C      1.977264   -0.895147   -0.593500
C     -1.727498   -2.855599   -0.003036
C      2.827392    1.247052    0.865145
C      3.695830    0.658152   -0.028176
C     -0.298203   -0.827401    0.492113
C     -1.323215    0.033050   -0.175051
C     -0.354621   -2.262316    0.048073
C      1.551000   -2.036005   -1.393284
N     -1.534993    1.323044    0.442770
O     -1.978408   -3.661077    1.131835
O      2.346827   -2.584234   -2.218881
O      3.519304    2.314283    1.471739
O      4.897864    1.345230    0.024497
O      0.257644   -2.479140   -1.206614
H     -1.155775    1.979926   -1.551489
H     -0.239955    2.863630   -0.284761
H     -1.975225    3.176406   -0.531004
H     -3.443496    0.977785   -1.306088
H     -4.628229    0.306850   -0.063063
H     -3.277553    2.513176    0.535333
H     -3.207706    1.145404    1.750763
H     -3.840194   -2.353378   -0.116211
H      0.891868    1.266218    1.746352
H      3.899646   -0.931923   -1.483794
H      5.539692    2.884514    1.291833
H      4.444559    3.320783   -0.122134
H     -1.826790   -3.569848   -0.871231
H     -0.489656   -0.807761    1.585238
H     -1.037446    0.170270   -1.240713
H      0.227057   -2.854186    0.797668
H     -1.072552   -3.902798    1.485386
