38

C      1.665722    1.200623    0.238343
C      5.277310    1.449880   -0.171963
C      0.839604    0.095117    0.153018
C      3.026914    1.115694    0.204884
C     -0.610743    0.174350    0.347314
C      1.451923   -1.144860    0.022482
C     -1.340414   -0.923980   -0.299511
C     -1.256295    1.452404   -0.196077
C      2.834117   -1.264616   -0.011338
C     -2.763502   -1.057888    0.191054
C     -2.630352    1.477114    0.426212
C     -3.445417    0.261385    0.349863
C      3.617995   -0.109682    0.082019
C      0.619352   -2.334883   -0.250982
N     -0.637725   -2.138220   -0.375614
O     -1.307846    1.325414   -1.573426
O      3.517573   -2.440039   -0.129857
O     -3.446496   -1.831787   -0.737609
O     -2.443682    1.882056    1.769003
O     -4.396467    0.419598   -0.677049
O      1.159841   -3.617014   -0.370469
O      4.076156    2.051885    0.270459
O      5.001219    0.075762    0.075920
H      1.252886    2.203098    0.338277
H      6.113252    1.771698    0.511041
H      5.498891    1.629663   -1.225861
H     -0.773245    0.171163    1.483389
H     -1.448977   -0.583543   -1.409644
H     -0.751213    2.366069    0.135569
H     -2.734904   -1.628468    1.133907
H     -3.161605    2.354331   -0.049113
H     -4.059829    0.194705    1.297275
H     -2.242912    1.497191   -1.887488
H      3.247285   -3.351504   -0.203604
H     -3.288868   -1.546180   -1.670443
H     -1.747437    2.594846    1.733713
H     -5.283709    0.630056   -0.349619
H      0.571599   -4.421439   -0.174660
