24

C     -3.030906    0.185619    0.490179
C      3.471465    0.012372   -0.192850
C      2.913129   -1.239429   -0.274047
C      2.627314    1.079883    0.069518
C      1.553213   -1.403901   -0.096521
C      1.269952    0.902831    0.245031
C     -1.586762    0.614089    0.271443
C      0.701846   -0.349513    0.165193
C     -0.728242   -0.620024    0.339222
N     -1.488931    1.307512   -0.972930
O     -1.130239   -1.503515   -0.682503
H     -3.116095   -0.628358    1.225639
H     -3.648976    1.070867    0.755359
H     -3.406870   -0.189830   -0.493789
H      4.539313    0.135072   -0.333071
H      3.582772   -2.066346   -0.479587
H      3.070927    2.056556    0.131707
H      1.177351   -2.414744   -0.173056
H      0.639967    1.758378    0.448503
H     -1.316990    1.247735    1.150698
H     -0.868686   -1.162035    1.295528
H     -1.371059    2.328387   -0.778805
H     -2.357863    1.218041   -1.549042
H     -1.495630   -2.339648   -0.323633
