45

C      5.633889    0.432677    1.055113
C     -4.616643   -1.515518    0.768198
C      2.895889    0.930373   -0.631087
C      1.646557    0.936956   -1.045467
C      2.446904   -0.649030    1.244709
C     -1.110673    1.757859   -0.884657
C     -1.149954   -1.483448    1.046886
C      0.622668   -2.329019   -0.205294
C     -4.270880    3.424644   -0.382586
C      3.432722    0.077766    0.421457
C     -1.569878   -0.198724    0.418137
C     -0.700712    0.577749   -0.316407
C     -2.432276    2.192006   -0.723076
C      1.023348   -0.427613    0.957325
C      0.520527   -1.262400   -1.239976
C     -2.860797    0.206913    0.586858
C     -3.277751    1.392543    0.017491
C      0.680534    0.037289   -0.434332
N      0.265573   -1.670918    1.037055
O      1.508729   -1.344790   -2.218061
O      4.301109    0.870666    1.193882
O     -3.785056   -0.527879    1.314130
O     -3.095315    3.321911   -1.181547
O     -4.507555    2.078205    0.001197
H      6.298729    1.052777    1.656889
H      5.951509    0.548314   -0.021916
H      5.667930   -0.649557    1.292635
H     -4.258835   -1.872986   -0.234457
H     -4.646941   -2.398916    1.441145
H     -5.661431   -1.129793    0.672295
H      3.607269    1.624854   -1.113477
H      1.370811    1.604904   -1.828720
H      2.629545   -0.358447    2.324105
H      2.638029   -1.763765    1.257156
H     -0.442921    2.380835   -1.463720
H     -1.521945   -1.520987    2.099393
H     -1.656857   -2.295036    0.478686
H      1.623373   -2.772002   -0.197692
H     -0.154214   -3.135960   -0.349667
H     -5.066980    3.819451   -1.033375
H     -4.076463    4.057891    0.500784
H      4.082084   -0.693096   -0.092225
H      0.550644    0.255171    1.710307
H     -0.443708   -1.333465   -1.744822
H      1.909413   -2.248405   -2.150026
