45

C      5.509149    1.363439    0.296718
C     -3.711595   -1.981785   -2.113051
C      2.465629    1.247325    1.668158
C      1.208967    0.817232    1.746921
C      2.414907    1.133518   -0.803588
C     -1.708591    0.593182    1.582352
C     -0.631142   -0.695774   -1.783868
C      1.344910   -1.639888   -0.810534
C     -5.339263    1.113936    1.509855
C      3.235602    1.012412    0.446896
C     -1.445755   -0.232909   -0.645242
C     -0.888640    0.177732    0.570370
C     -3.099235    0.624972    1.450335
C      1.038998    0.623247   -0.724673
C      0.931779   -1.367054    0.601192
C     -2.810148   -0.206111   -0.786826
C     -3.624971    0.216387    0.245119
C      0.589269    0.114584    0.630714
N      0.786023   -0.539498   -1.561863
O      1.903256   -1.698533    1.540415
O      4.244972    1.971082    0.378932
O     -3.379913   -0.610745   -1.988067
O     -4.140997    0.990914    2.291153
O     -5.000224    0.341685    0.372341
H      6.302465    2.124084    0.243272
H      5.657676    0.693348    1.172823
H      5.550439    0.724582   -0.611304
H     -4.779964   -2.159116   -1.814049
H     -3.533619   -2.356319   -3.139749
H     -3.104432   -2.616157   -1.424804
H      2.906068    1.764355    2.503106
H      0.656277    0.999733    2.668952
H      2.982068    0.622607   -1.623007
H      2.420124    2.217102   -1.095389
H     -1.303868    0.913860    2.530224
H     -0.877860   -0.060897   -2.684829
H     -0.868105   -1.739873   -2.092201
H      0.894798   -2.589877   -1.214212
H      2.433276   -1.708768   -0.930553
H     -5.433353    2.172948    1.132371
H     -6.223189    0.764113    2.038619
H      3.729279    0.018494    0.416011
H      0.318825    1.409235   -1.100818
H      0.055986   -2.013873    0.821989
H      2.324125   -2.548930    1.202600
