30

C      0.783213    1.678148    0.846117
C      1.656015    1.018594   -0.148956
C     -1.282759    0.621356   -0.056108
C     -0.429995    0.871497    1.167652
C     -2.514957   -0.177062    0.315320
C     -3.364000   -0.432165   -0.878132
C      2.987472   -0.999990   -0.610687
N     -3.267509    0.580139    1.322265
N      2.864848   -0.780659   -1.880337
N      3.875063   -1.964462   -0.092611
N      2.190087   -0.233644    0.285390
O     -0.167661   -0.325620    1.795543
O     -4.525155    0.000550   -0.921778
O     -2.890642   -1.155948   -1.973759
H      0.500939    2.700584    0.492804
H      1.373191    1.868884    1.775692
H      1.095230    0.804625   -1.105078
H      2.502978    1.681229   -0.487220
H     -1.533377    1.555725   -0.581145
H     -0.705334   -0.013422   -0.783915
H     -1.079246    1.462057    1.871685
H     -2.212206   -1.154369    0.721813
H     -2.978218    0.248186    2.273688
H     -3.043802    1.596834    1.201110
H      3.427890   -1.320488   -2.557134
H      3.639367   -2.657261    0.626898
H      4.860809   -1.958177   -0.489172
H      2.021991   -0.587093    1.237900
H     -0.278872   -1.089541    1.196746
H     -3.505361   -1.838509   -2.444595
