43

C     -0.778689    0.908715   -2.671439
C      3.796686    2.664539    1.444081
C     -5.270896   -3.287566   -0.273419
C     -5.599361   -1.942963    1.676297
C      2.693073    2.184278    0.825077
C     -4.499712   -2.286573   -0.826132
C     -4.820916   -0.951090    1.100099
C      3.993138    0.322575    0.064817
C      6.165136    2.464145    2.016438
C     -1.562841   -0.272484   -0.611155
C      5.029893    1.999262    1.399506
C     -5.824692   -3.117759    0.984279
C      2.748943    0.982315    0.103390
C     -4.279065   -1.128458   -0.138722
C      5.081009    0.811290    0.684965
C      0.768241    0.074451   -1.047447
C     -0.615221    0.723621   -1.179382
C      6.364864    0.048459    0.575439
F     -6.585959   -4.101519    1.539547
F      6.791194   -0.277007    1.825216
F      6.143784   -1.107963   -0.178712
F      7.280629    0.803044   -0.085956
N      7.162120    2.876472    2.582398
N      1.702614    0.499420   -0.506286
O      0.782160   -1.209727   -1.718133
O     -0.638642    1.886740   -0.458284
O     -3.599306    1.412776   -0.147209
O     -3.630913    0.285886   -2.309316
S     -3.274409    0.140398   -0.863973
H      0.192020    1.205825   -3.082308
H     -1.079382   -0.079972   -3.090091
H     -1.517081    1.660569   -2.957951
H      3.765739    3.592940    2.006829
H     -5.451684   -4.206158   -0.821667
H     -6.023043   -1.783592    2.654403
H      1.743416    2.706140    0.869825
H     -4.074577   -2.431818   -1.809820
H     -4.648908   -0.024022    1.647206
H      4.005618   -0.617945   -0.506814
H     -1.400568   -0.329907    0.481363
H     -1.349248   -1.303074   -1.016288
H      1.668654   -1.704467   -1.694137
H     -1.353817    1.910203    0.202313
