28

C      3.783285    0.282147    0.665994
C     -1.154558   -0.581484   -1.206629
C     -2.496958   -0.284281   -1.294652
C     -1.134397    0.007831    1.065905
C      1.740459    0.372584   -0.621106
C     -0.440723   -0.444864   -0.033876
C     -3.207845    0.176057   -0.183787
C     -2.497934    0.312337    0.986237
C      1.009775   -0.769389    0.048373
N      3.160024    0.199735   -0.622213
O     -4.564522    0.469644   -0.298913
O     -3.137918    0.763760    2.128699
O      1.257048   -1.982705   -0.579741
Cl     0.687394    0.000000    0.000000
H      3.318084    1.040271    1.330868
H      4.840759    0.631607    0.505578
H      3.831556   -0.716174    1.157150
H     -0.634284   -0.937461   -2.088801
H     -3.064450   -0.388657   -2.209354
H     -0.619164    0.130106    2.007219
H      1.411639    0.394235   -1.684838
H      1.406022    1.312420   -0.122492
H      1.293152   -0.876815    1.108848
H      3.568392    0.964586   -1.222029
H     -5.121383    0.803159    0.467252
H     -4.109828    1.009209    2.197681
H      1.563769   -1.887859   -1.501375
H     -0.687394    0.000000    0.000000
