41

C     -3.245005   -0.095660   -0.031057
C      2.530978   -1.368049   -0.292475
C      1.214393   -1.235755   -0.641038
C      3.208486   -0.360842    0.387610
C      1.213558    0.901568    0.353958
C     -1.831503   -0.538740    0.307560
C      0.530684   -0.085784   -0.318551
C      2.533517    0.792887    0.714574
C     -0.885297    0.138605   -0.654128
N     -1.583726   -0.120403    1.675029
O      3.185918    1.822779    1.397416
O     -1.114640   -0.255930   -1.967970
C     -0.393355    0.746366   -0.055318
C      0.546360   -0.269018   -0.723802
C     -1.357705    0.078024    0.818924
C      1.385108   -0.924892    0.276789
O     -1.095126    1.373891   -1.115051
O      1.365922    0.478335   -1.597876
O     -1.113137   -0.494493    1.905274
O     -2.711503    0.058099    0.427094
O      0.949849   -1.735438    1.125810
O      2.765976   -0.663285    0.329520
H     -3.388557    0.976673    0.283795
H     -3.371881   -0.219762   -1.120450
H     -3.943320   -0.736775    0.531806
H      3.118985   -2.255602   -0.522573
H      0.703681   -2.043830   -1.176410
H      4.254082   -0.451909    0.670957
H      0.697077    1.821465    0.621403
H     -1.784283   -1.629876    0.272350
H     -1.105558    1.224756   -0.600445
H     -1.396888    0.911325    1.661838
H     -2.425642   -0.245445    2.279898
H      3.666196    2.561228    0.899190
H     -0.781255    0.493075   -2.543420
H      0.183023    1.554978    0.433689
H     -0.030996   -0.971224   -1.320334
H     -2.052245    1.471473   -0.899144
H      1.539659    1.343765   -1.132323
H     -3.327444   -0.654383    0.811892
H      3.345615   -1.392198    0.714855
