41

C      2.143581    0.615042   -1.302963
C     -2.660382   -1.379798    0.305263
C     -1.316526   -1.599094    0.460725
C     -3.044548   -0.146775   -0.196600
C     -0.776526    0.574930   -0.360556
C      2.004843    0.193356    0.119904
C     -0.354794   -0.631976    0.132657
C     -2.139128    0.826131   -0.529671
C      1.072737   -0.962598    0.350893
N      1.646393    1.276875    0.998342
O     -2.521914    2.062204   -1.032654
O      1.197988   -1.426979    1.675848
C     -0.886209   -0.542980   -0.391094
C      0.348618   -1.091517    0.294004
C     -1.220097    0.817173    0.095730
C      1.544595   -0.295674   -0.049394
O     -0.630638   -0.541355   -1.759624
O      0.207539   -1.140241    1.678519
O     -1.484286    1.032324    1.303418
O     -1.233896    1.853445   -0.820307
O      1.894653   -0.099478   -1.242322
O      2.330787    0.268543    0.945240
H      1.394394    0.062775   -1.934539
H      2.092483    1.704658   -1.467819
H      3.140957    0.302060   -1.742065
H     -3.389538   -2.149076    0.568085
H     -0.960665   -2.547767    0.849968
H     -4.098287    0.035766   -0.322783
H     -0.088639    1.355010   -0.620859
H      3.042746   -0.129833    0.442587
H      1.375031   -1.807959   -0.294845
H      1.953356    2.210861    0.650631
H      1.858876    1.103694    1.985607
H     -2.715116    2.862344   -0.440799
H      1.142677   -2.403849    1.705643
H     -1.740377   -1.229046   -0.231301
H      0.446835   -2.157339   -0.040121
H     -0.745272    0.358875   -2.139749
H     -0.714326   -1.072671    1.985413
H     -1.117943    2.824276   -0.533179
H      3.000016    1.015665    0.778179
