91

C      5.571664   -2.678737    1.375050
C      4.037014   -4.662940    0.953268
C      2.687994    5.668433    0.424178
C      1.428266    4.764664    2.452158
C     -4.351862   -4.452196    1.118006
C     -5.309617   -2.126195    1.517460
C     -4.302951    3.551989   -1.337594
C     -5.048610    1.900060   -3.199263
C      0.583604   -2.014267   -3.618690
C      2.628501   -2.625267   -2.323168
C      1.693223    1.081137   -1.332436
C      3.358554   -0.953040    1.437076
C      3.136947   -2.395064    1.206578
C      2.395598    3.225411    0.837467
C     -2.908943   -2.614127    1.733887
C      1.897282    2.095498    1.618812
C     -2.656671   -1.213843    2.086595
C     -2.838556    1.809787   -2.175879
C      2.892280   -0.107561    0.344105
C     -1.810110    2.255851   -1.254227
C     -0.218442    1.920201    0.519714
C      4.217186   -3.216225    1.179511
C      2.197905    4.517895    1.191837
C     -4.128348   -3.026562    1.472746
C     -4.031300    2.413167   -2.228315
C      1.090812   -2.511395   -2.279905
C      0.956919    1.153482    0.961029
C     -1.716547   -0.544304    1.142588
C      0.541238   -1.982096   -1.073874
C     -2.186587    0.519375    0.501031
C     -0.353723   -1.025710    0.932489
C     -0.547711    0.095008   -1.118704
C      1.543357    0.165686   -0.063306
C     -1.210076    1.212040   -0.365649
C      0.450913   -0.749918   -0.324032
O     -0.090648   -2.893541   -0.423478
O     -3.457203    0.949368    0.619612
O      0.096521   -1.688730    1.878751
O     -0.841920   -0.050047   -2.253265
H      5.743932   -2.210312    2.366595
H      5.766094   -1.950179    0.538344
H      6.330184   -3.489520    1.182920
H      4.822718   -5.203958    1.529885
H      4.211770   -4.953640   -0.120145
H      3.018031   -5.016100    1.193431
H      3.594829    6.117472    0.883709
H      2.923691    5.310026   -0.604076
H      1.866063    6.408034    0.337391
H      1.456674    5.862879    2.713024
H      1.874424    4.264149    3.327113
H      0.384575    4.442021    2.324037
H     -4.151137   -4.542743    0.019949
H     -3.682965   -5.125106    1.695353
H     -5.400212   -4.777063    1.293071
H     -6.258541   -2.708303    1.456924
H     -5.328044   -1.400464    0.679444
H     -5.391698   -1.547531    2.459841
H     -5.211832    4.078280   -1.764379
H     -3.499845    4.338120   -1.393166
H     -4.492553    3.235569   -0.318085
H     -4.953005    0.792223   -3.200993
H     -6.047935    2.252625   -2.893007
H     -4.743425    2.299434   -4.204731
H     -0.482007   -2.226417   -3.687411
H      0.949973   -1.043360   -3.927706
H      1.017185   -2.707231   -4.440452
H      2.932015   -3.253207   -1.474205
H      3.016056   -1.616810   -2.373100
H      2.937758   -3.201731   -3.226992
H      1.325238    0.544081   -2.227345
H      1.176958    2.013819   -1.238158
H      2.784769    1.303024   -1.502201
H      4.477209   -0.835319    1.612111
H      2.958803   -0.653002    2.450719
H      2.180542   -2.868814    1.054531
H      2.958420    3.139437   -0.077895
H     -2.089127   -3.314451    1.687501
H      2.652541    1.652830    2.300652
H      1.207818    2.587520    2.400735
H     -2.162077   -1.231391    3.101687
H     -3.599993   -0.662396    2.109001
H     -2.683467    0.988173   -2.850802
H      3.342159    0.939709    0.584953
H      3.610093   -0.285238   -0.563178
H     -2.199411    3.054448   -0.551025
H     -1.007752    2.799512   -1.836544
H     -0.794649    2.192973    1.461748
H      0.038413    2.952390    0.124560
H      0.829576   -3.627736   -2.399049
H      0.611738    0.494545    1.815269
H     -4.216529    0.621446    0.037983
