27

C     -3.112911    0.453914   -0.535357
C      1.295145   -0.965304   -0.653981
C      1.435282    1.253693    0.095419
C      2.600382   -1.194590   -0.208898
C      2.725031    1.036119    0.538031
C     -0.693414    0.488489   -0.986698
C      0.689708    0.264322   -0.509171
C      3.326754   -0.192587    0.392036
C     -1.666198   -1.143975    0.624331
C     -1.738884    0.195823    0.045963
N     -1.556162    1.160395    1.138786
O      4.643913   -0.419260    0.842658
O     -1.478393   -1.354582    1.847696
O     -1.804972   -2.270082   -0.172839
H     -3.057904    0.685495   -1.605924
H     -3.753479   -0.466746   -0.421987
H     -3.655184    1.254818   -0.004399
H      0.782967   -1.789073   -1.114372
H      0.956482    2.232614    0.211971
H      3.083480   -2.156594   -0.318449
H      3.267282    1.828630    1.000550
H     -0.918651   -0.144170   -1.895188
H     -0.803711    1.534860   -1.339140
H     -2.245277    1.012738    1.890880
H     -1.550594    2.105629    0.727041
H      5.438743   -0.260912    0.234690
H     -2.209436   -3.149667    0.176350
