39

C      3.547609    0.370791   -1.577642
C     -5.450020    0.459068    1.721347
C     -5.215501   -0.211362    0.345281
C      3.192525    1.108011   -0.556054
C      3.682374   -1.005052    0.309727
C      2.616843   -1.846060   -1.785775
C      1.174584   -0.360967    2.167224
C      3.761285   -1.052461   -1.193080
C     -4.273512    0.882878    0.817704
C      3.101763    0.332522    0.688390
C     -0.548092    0.421591    1.068706
C     -1.775563    0.812088    0.574368
C      0.625631    0.713484    0.393187
C     -0.614326    1.776071   -1.259260
N     -0.671646    2.429285   -2.378249
N     -0.164608   -0.252767    2.176446
N     -2.954405    0.501993    1.282059
N     -1.752714    1.484238   -0.589020
N      0.601583    1.390003   -0.770877
N      1.694632    0.226188    1.077776
O      2.703713   -3.205136   -1.493881
H      3.674279    0.741489   -2.588464
H     -5.211990   -0.141282    2.615823
H     -6.306392    1.176643    1.763064
H     -4.901153   -1.265063    0.419149
H     -5.951705    0.025507   -0.446006
H      2.979230    2.190250   -0.594680
H      4.702900   -1.063769    0.784716
H      3.036804   -1.834522    0.714688
H      2.537243   -1.702296   -2.880262
H      1.681147   -1.396140   -1.359509
H      1.797150   -0.852554    2.924561
H      4.729070   -1.373421   -1.580845
H     -4.396324    1.837626    0.268249
H      3.633882    0.780728    1.542039
H     -1.608517    2.708541   -2.723143
H     -2.887291   -0.020280    2.173625
H     -2.654755    1.802244   -1.005886
H      1.864266   -3.462025   -1.045495
