27

C     -1.712828   -1.273241   -0.103192
C      1.320907   -0.707546   -0.970717
C      1.486025    0.979304    0.655763
C      2.584010   -1.173876   -0.627307
C      2.740881    0.521531    1.001922
C     -0.608926    0.883617   -0.700372
C      0.741627    0.377504   -0.339881
C      3.301661   -0.553935    0.368546
C     -2.985964    0.788684   -0.319014
C     -1.697482    0.219104    0.109469
N     -1.464800    0.500877    1.489886
O      4.572961   -1.042612    0.696715
O     -3.686460    1.411173    0.508016
O     -3.426779    0.640291   -1.628678
H     -0.944392   -1.783973    0.494093
H     -2.690255   -1.685791    0.202863
H     -1.556765   -1.554359   -1.152664
H      0.760460   -1.188892   -1.745882
H      1.022386    1.837266    1.151178
H      3.024595   -2.026348   -1.131733
H      3.305623    1.021990    1.796984
H     -0.701258    1.981229   -0.573241
H     -0.830999    0.693339   -1.791788
H     -1.762962   -0.250056    2.138018
H     -1.735955    1.451682    1.795780
H      5.389207   -0.663372    0.203089
H     -4.444519    0.596407   -1.786105
