27

C      3.868453    0.552080   -0.197323
C      3.168599    1.561902    0.432099
C      3.192604   -0.514554   -0.709690
C      1.775235    1.461411    0.527097
C     -1.798261   -1.697721   -0.821480
C     -2.843265   -1.068329   -0.364276
C      0.873169   -1.647672   -1.081333
C      1.796164   -0.608219   -0.610617
C     -0.466576   -1.125515   -0.650697
C      1.096683    0.390630    0.012745
C     -2.797654    0.200828    0.326325
C     -0.344577    0.028097   -0.030899
C     -1.477950    0.803555    0.519009
O     -3.555982    0.176126    1.525269
O     -1.272442    1.011293    1.920669
H      4.965954    0.606387   -0.285777
H      3.720316    2.399113    0.831958
H      3.724386   -1.312559   -1.204798
H      1.231793    2.247987    1.017208
H     -1.861685   -2.655673   -1.339844
H     -3.823145   -1.585229   -0.542202
H      1.072121   -2.648789   -0.664939
H      0.878158   -1.629906   -2.187882
H     -3.384118    0.924569   -0.355980
H     -1.430528    1.851299    0.078459
H     -4.172595    0.923467    1.587765
H     -2.134857    1.355421    2.269133
