66

C     -3.213460    3.085829   -0.784380
C      1.113471   -4.391179    0.511776
C     -4.122747   -0.836436    1.011258
C     -1.573043   -2.723191    1.521799
C      3.675222    1.677987    0.087742
C      0.720978    4.006574   -0.655011
C      2.393372   -0.610063   -2.112771
C     -3.172714    1.568227   -0.668892
C      2.226260   -2.573392   -0.659539
C      1.046227   -2.888400    0.195800
C     -2.676835   -0.376013    0.821767
C     -1.545723   -2.470069    0.037230
C      2.251297    1.184806   -0.078318
C      0.266687    2.693333   -0.054692
C     -2.717345    1.134557    0.683299
C     -0.233164   -2.721850   -0.568558
C     -2.099510   -1.101928   -0.335271
C      1.385050    2.073244    0.791223
C      2.137688   -0.275323    0.376959
C     -0.883155    2.861567    0.878952
C      2.656367   -1.152786   -0.704106
O     -0.157346   -2.805211   -1.784089
O     -1.072333   -0.438312   -0.979801
O      2.110657    3.102800    1.386083
O      3.018893   -0.376647    1.474089
O     -1.055383    4.050742    1.271295
O      4.069449   -1.130147   -0.595121
O     -1.606196    1.762253    1.207062
H     -3.513980    3.520090    0.190842
H     -4.000406    3.413006   -1.498108
H     -2.283182    3.532484   -1.125407
H      0.517566   -4.980954   -0.214619
H      0.866511   -4.601701    1.562321
H      2.172541   -4.758822    0.376533
H     -4.852330   -0.107753    0.630284
H     -4.362945   -0.949969    2.105252
H     -4.317496   -1.787025    0.453132
H     -2.572235   -2.534060    1.920968
H     -0.801384   -2.126827    2.037365
H     -1.401963   -3.829015    1.683056
H      4.136811    1.279258    1.018330
H      3.628090    2.777652    0.224054
H      4.309714    1.497994   -0.794386
H      1.824126    4.003708   -0.771501
H      0.380172    4.853189   -0.027255
H      0.310943    4.114650   -1.692475
H      3.144716    0.154290   -2.399133
H      1.363393   -0.274045   -2.217497
H      2.613333   -1.486229   -2.792479
H     -4.260585    1.264727   -0.750285
H     -2.686435    1.099983   -1.522893
H      1.994106   -2.954317   -1.687549
H      3.068232   -3.241600   -0.310387
H      1.027165   -2.389489    1.173236
H     -2.077986   -0.569757    1.735898
H     -2.258154   -3.220340   -0.412194
H      1.957105    1.332155   -1.115794
H      0.064872    2.020701   -0.894585
H     -3.572443    1.434620    1.384573
H     -2.923079   -1.190650   -1.105238
H      0.900696    1.424228    1.552903
H      1.102158   -0.422218    0.679044
H     -1.032279   -0.625318   -1.949421
H      1.667309    3.976308    1.290693
H      2.549614   -0.254100    2.333804
H      4.375048   -1.725826   -1.346863
