41

C     -2.649287    1.912654    2.223215
C      4.104813    0.687418    1.279230
C      4.086939   -1.326416   -3.176604
C     -0.432950   -2.586592    0.894025
C     -4.028200    1.219668    0.311696
C     -3.100583   -1.072387    0.807292
C      2.709382   -0.132185   -1.081633
C     -2.684377    1.705655    0.722264
C     -4.153951   -0.254388    0.222548
C      2.060094    0.463418   -0.021393
C      2.007717   -0.516069   -2.206387
C     -1.872668   -0.616568    0.886401
C      0.685852    0.669315   -0.107966
C      0.649932   -0.297269   -2.258371
C     -0.049383    0.300448   -1.213583
C     -0.274915    1.252306    0.817539
C     -1.587264    0.736958    0.371468
Cl    -0.223351   -0.788444   -3.687798
O     -5.156578   -0.731463   -0.349442
O     -0.000651    2.018357    1.769184
O      2.707615    0.871559    1.135420
O      2.691177   -1.120032   -3.271236
O     -0.851247   -1.361786    1.432868
O     -1.382504    0.627455   -1.019420
H     -2.307425    2.936608    2.483586
H     -1.967344    1.198137    2.730088
H     -3.662754    1.712453    2.677442
H      4.403435    0.795846    2.354214
H      4.663456    1.471022    0.729674
H      4.448744   -0.294515    0.888176
H      4.444110   -1.980653   -3.997041
H      4.630107   -0.361539   -3.208367
H      4.341396   -1.857208   -2.218005
H     -0.072482   -2.525301   -0.138568
H     -1.292240   -3.293431    0.929361
H      0.362292   -3.001312    1.567557
H     -4.830280    1.550641    1.034798
H     -4.339243    1.703336   -0.660596
H     -3.377677   -2.073539    1.173007
H      3.768905   -0.299262   -1.033748
H     -2.468609    2.657105    0.209105
