30

C      2.153540    1.716920   -0.448740
C      3.397026   -0.333513   -0.222603
C     -3.025832   -0.059988    0.239278
C      0.517525   -1.378561    0.072362
C     -0.992757   -1.525132    0.246842
C     -0.102430    0.811895    0.907584
C      2.148461    0.482836    0.024681
C      1.037578   -0.135705    0.758304
C     -0.867864    0.861870   -0.391886
C     -1.722635   -0.413334   -0.439053
O     -1.669669    1.987301   -0.409678
O     -1.976124   -0.721124   -1.784305
H      3.001419    2.127479   -0.985039
H      1.298180    2.363477   -0.312788
H      4.194752    0.119795    0.381790
H      3.649717   -0.158607   -1.289366
H      3.199895   -1.387045   -0.014294
H     -2.852636    0.224722    1.282058
H     -3.413908    0.857069   -0.291208
H     -3.810152   -0.825519    0.100070
H      1.007165   -2.275015    0.507013
H      0.751732   -1.356284   -0.997613
H     -1.239669   -1.615312    1.331048
H     -1.239282   -2.513687   -0.237647
H     -0.807947    0.350367    1.663207
H      0.168861    1.811280    1.266251
H      1.415246   -0.428992    1.776461
H     -0.237772    0.813856   -1.290178
H     -1.931238    2.298163    0.488646
H     -2.051184   -1.699212   -1.931199
