26

C     -3.054682   -0.131671    0.839605
C     -1.720864   -0.467987    0.909730
C      3.260593    0.576212    0.255092
C      0.654583   -1.978713    0.239011
C     -3.523100    0.655320   -0.207799
C      0.534562   -0.448312    0.128585
C      2.616043   -0.349427   -0.727174
C     -1.302717    0.709559   -1.030074
N     -4.767998    0.975480   -0.282835
N     -2.618007    1.050497   -1.113435
N     -0.834702   -0.048213   -0.027215
O      3.156823    1.867234   -0.264406
O     -0.397529    1.140786   -1.990866
O      1.276594   -0.059463   -0.952784
S      2.475038   -2.056517   -0.054269
H     -3.760953   -0.474161    1.598494
H     -1.406710   -1.076930    1.736256
H      2.882054    0.496739    1.269586
H      4.363059    0.335609    0.247680
H      0.118109   -2.473097   -0.580724
H      0.400244   -2.318755    1.240962
H      0.935327   -0.033259    1.058852
H      3.172279   -0.456861   -1.666736
H     -5.419749    0.639618    0.447747
H      3.742131    2.509457    0.171552
H     -0.780427    1.416854   -2.890888
