44

C     -5.240421    1.121322   -2.233405
C      4.878220    1.346039   -1.744274
C     -2.757125   -0.779814    0.572542
C     -3.567547   -0.157065   -0.343421
C      1.794353   -2.435574   -0.584711
C      0.977702   -3.298523    0.377452
C     -0.993826   -0.832290    2.296119
C     -1.709820    1.254420    1.100169
C      2.920725   -0.265563   -0.541802
C      1.498017    0.579464    1.618694
C     -1.794304   -0.091418    1.330244
C      1.962644   -1.073751    0.033953
C      1.223332   -0.686512    1.121790
C      0.229260   -1.526299    1.725586
C     -2.533009    1.900223    0.166281
C      2.457498    1.410857    1.056682
C     -3.466623    1.198052   -0.560879
C      3.183991    1.006045   -0.029989
N     -0.194524   -2.574066    0.809074
O     -2.443739    3.266368   -0.064812
O      2.707470    2.674653    1.579621
O     -4.294831    1.834254   -1.497348
O      4.150352    1.799391   -0.625060
H     -4.786163    0.480408   -3.019931
H     -5.897823    1.842467   -2.769968
H     -5.856286    0.427262   -1.608153
H      5.612608    0.560575   -1.414765
H      5.465392    2.201555   -2.140444
H      4.256907    0.948063   -2.548468
H     -2.860011   -1.861429    0.724854
H     -4.298243   -0.708939   -0.911646
H      1.255794   -2.359448   -1.522250
H      2.797338   -2.874013   -0.709225
H      0.726580   -4.224552   -0.154555
H      1.618910   -3.458043    1.268324
H     -1.602174   -1.645413    2.779545
H     -0.642264   -0.200136    3.139793
H     -1.018916    1.870654    1.635789
H      3.507944   -0.563351   -1.401032
H      0.986939    0.978777    2.472987
H      0.691202   -2.066511    2.596838
H     -0.583795   -2.084700   -0.030255
H     -1.755817    3.779330    0.472020
H      3.394081    3.287232    1.188694
