39

C      3.763750    0.391110    0.010973
C      2.561176   -1.702352    0.269119
C     -2.003317   -3.209641   -0.848606
C     -2.342745    2.746823   -0.363190
C     -2.567225   -1.295455    0.732627
C      0.133747    2.427763   -0.891071
C     -2.445313    0.206915    0.774218
C      1.226392    1.854314    0.025655
C     -0.371249   -1.469461   -0.404848
C      2.454643   -0.224600    0.456879
C     -1.592152   -1.931963   -0.156513
C     -1.128565    1.898921   -0.322166
C      1.274343    0.390932   -0.260224
C     -1.154435    0.686981    0.214070
C      0.008010   -0.210734    0.289872
H      4.473303   -0.375278   -0.392721
H      4.303423    0.838723    0.888723
H      3.646057    1.144002   -0.776058
H      3.547828   -2.005753    0.727763
H      2.682707   -1.918860   -0.822371
H      1.801825   -2.298406    0.764103
H     -2.680034   -3.752670   -0.155629
H     -1.104092   -3.876800   -0.971996
H     -2.461055   -2.953940   -1.810334
H     -3.012394    2.609320    0.496355
H     -2.880300    2.571452   -1.333661
H     -2.007811    3.824241   -0.313023
H     -2.432292   -1.662487    1.776649
H     -3.584233   -1.615586    0.426763
H      0.226674    1.986250   -1.919794
H      0.213546    3.515119   -0.876851
H     -2.515890    0.609454    1.805090
H     -3.301252    0.612444    0.196718
H      2.161431    2.395565   -0.150016
H      0.908096    2.021138    1.076430
H      0.299788   -1.994042   -1.080928
H      2.303348   -0.026472    1.543475
H      1.388772    0.192280   -1.332827
H      0.205496   -0.399248    1.385753
