37

C      1.774658    0.193838    1.042824
C      2.926551   -0.423540   -0.923367
C      2.629008    1.262290    1.221630
C      3.775146    0.640096   -0.743211
C     -2.537458   -2.025334    0.500447
C     -2.410232   -2.554301   -0.938782
C      0.969337   -1.816277   -0.201574
C     -2.831243    0.439409    0.947060
C     -0.622730    0.938330   -0.581332
C      1.901568   -0.681733   -0.039952
C     -2.134651   -0.576590    0.361240
C      3.651455    1.501839    0.321088
C     -1.016766   -0.350447   -0.414135
C     -0.254938   -1.462766   -1.043428
C     -2.391330    1.755901    0.750160
C     -1.283579    2.039146   -0.013707
N     -1.000389   -2.659058   -1.213537
O      4.509475    2.585517    0.512069
O     -3.108479    2.768709    1.350442
O     -0.816985    3.323423   -0.232769
H      0.985577    0.030966    1.761417
H      3.065803   -1.079483   -1.784555
H      2.521164    1.940245    2.070875
H      4.588810    0.846513   -1.442920
H     -1.778072   -2.500046    1.155337
H     -3.551754   -2.127777    0.885198
H     -2.871899   -1.778904   -1.582128
H     -2.902561   -3.537124   -1.036587
H      1.520432   -2.654416   -0.664181
H      0.672095   -2.145250    0.805773
H     -3.722104    0.233304    1.563162
H      0.256977    1.201969   -1.189481
H      0.097048   -1.124111   -2.039805
H     -0.615130   -3.491152   -0.699064
H      4.207814    3.465222    0.068064
H     -2.897748    3.729621    1.285334
H     -1.304870    4.091977    0.182394
