25

C      3.559503   -0.226245    0.376432
C     -0.855331   -1.757294   -0.078979
C     -2.460049    0.632426   -0.320321
C     -1.135354    0.880060   -1.006746
C     -2.102124   -0.016943    1.001915
C      1.215550    0.244868   -0.457850
C      2.111566   -0.114381    0.678073
C     -0.152093    0.526335    0.066865
N     -0.775742   -0.574037    0.742962
O      1.691967   -0.333819    1.793065
H      3.714287   -1.208125   -0.111450
H      4.206962   -0.129174    1.258099
H      3.818122    0.569137   -0.354437
H     -0.234426   -2.597127    0.301496
H     -1.898106   -2.139721   -0.193007
H     -0.530253   -1.500826   -1.117670
H     -3.075665   -0.056930   -0.915578
H     -2.974464    1.592480   -0.177818
H     -1.014441    1.950386   -1.239804
H     -1.018363    0.308918   -1.940931
H     -2.024062    0.755736    1.782769
H     -2.831390   -0.791041    1.276980
H      1.566909    1.189711   -0.944440
H      1.279411   -0.573688   -1.185182
H     -0.082415    1.378146    0.765558
