26

C      2.613883   -0.288383   -1.045641
C     -1.981967    1.301305   -0.678591
C     -1.286811   -1.055521   -0.939903
C      1.276659   -1.131309    0.797625
C     -0.031257   -1.102586    1.554413
C      0.176134    1.335294    1.029257
C      1.442851   -0.264455   -0.171917
C     -0.751635    0.156356    1.225010
C      0.411976    0.771707   -0.389066
C     -0.987779    0.232281   -0.279890
H      3.379565    0.417211   -0.632120
H      2.375189    0.007990   -2.105293
H      3.112076   -1.287312   -1.070601
H     -1.600461    2.319409   -0.550937
H     -2.903124    1.109000   -0.083253
H     -2.236154    1.098927   -1.757661
H     -0.459698   -1.786717   -0.942289
H     -1.588636   -0.871589   -1.979328
H     -2.195933   -1.497075   -0.435543
H      1.992512   -1.875660    1.114503
H      0.152529   -1.128880    2.645765
H     -0.641012   -1.989826    1.310726
H      1.076918    1.317250    1.667184
H     -0.285294    2.317229    1.053787
H     -1.664647    0.369738    1.811424
H      0.604116    1.525617   -1.147661
