37

C      3.077303    0.901009   -0.567100
C      2.595677   -1.470693   -0.495613
C      4.402538    0.597520   -0.321035
C      3.926674   -1.736940   -0.250979
C     -2.102250   -1.545952    1.247268
C     -0.686641   -1.921874    0.880822
C      0.759274    0.119786   -0.912484
C     -3.757509    0.022822    0.372332
C     -1.802050    1.785760   -0.439511
C      2.189862   -0.165894   -0.649532
C     -2.402646   -0.255788    0.573861
C      4.843593   -0.700110   -0.161563
C     -1.417074    0.598686    0.181957
C      0.014869    0.311255    0.388456
C     -4.120083    1.221530   -0.254128
C     -3.148981    2.103124   -0.660377
N      0.192043   -0.815129    1.264074
O      6.187006   -0.999263    0.087325
O     -5.459920    1.506322   -0.458154
O     -3.465482    3.280199   -1.273737
H      2.743230    1.932299   -0.691023
H      1.860475   -2.278444   -0.568834
H      5.145682    1.379884   -0.244812
H      4.226966   -2.776309   -0.132306
H     -2.792495   -2.303809    0.776809
H     -2.249484   -1.496092    2.341662
H     -0.623444   -2.034660   -0.213149
H     -0.340482   -2.837970    1.388867
H      0.341843   -0.747289   -1.463505
H      0.667856    0.993920   -1.555748
H     -4.530821   -0.664931    0.688575
H     -1.047769    2.464611   -0.752062
H      0.428725    1.237306    0.890707
H      0.074390   -0.559464    2.269001
H      6.483121   -1.041172    1.067454
H     -5.811889    2.329922   -0.893120
H     -4.402108    3.565830   -1.460397
