47

C     -0.122409   -1.208143    2.211046
C      6.777104    0.669827    0.593043
C     -6.472529    1.264309   -0.606359
C      2.712522    0.830430   -0.228791
C      4.049128    0.783575    0.044540
C     -1.464265    1.759562    0.837842
C     -0.540830    1.042716    1.757139
C      0.594716   -0.020071   -1.138092
C      2.757245   -1.262147   -1.296277
C     -3.646284    0.917796   -0.100517
C     -2.468191   -1.373965   -0.949506
C      2.033731   -0.167091   -0.893465
C     -2.298572    0.745879    0.137397
C     -1.707333   -0.422322   -0.297600
C     -0.257463   -0.582273   -0.029765
C      4.128891   -1.327084   -1.024456
C     -3.808507   -1.221229   -1.195109
C      4.775064   -0.298879   -0.351247
C     -4.399627   -0.054784   -0.760966
N      0.086950   -0.125599    1.265253
O      4.894898   -2.415363   -1.414317
O     -4.578684   -2.168799   -1.847233
O      6.148078   -0.384553   -0.089809
O     -5.747477    0.138110   -0.988563
H      0.253739   -0.955721    3.221560
H      0.326550   -2.169385    1.834006
H     -1.212352   -1.430436    2.333230
H      7.799784    0.435558    0.884388
H      6.807202    1.594691   -0.018157
H      6.215864    0.960329    1.528972
H     -5.909550    2.201557   -0.580231
H     -7.303385    1.386966   -1.360623
H     -6.970476    1.059204    0.377936
H      2.149668    1.694095    0.090645
H      4.530936    1.592240    0.568127
H     -0.965300    2.459615    0.139766
H     -2.118110    2.427928    1.475026
H      0.277585    1.741299    2.104838
H     -1.115587    0.835954    2.708903
H      0.297213    1.022846   -1.301590
H      0.381811   -0.550441   -2.105652
H      2.304152   -2.073409   -1.814822
H     -4.081912    1.843781    0.252199
H     -1.991863   -2.295275   -1.290154
H     -0.076913   -1.699212   -0.058490
H      4.516195   -3.208066   -1.906745
H     -5.561406   -1.994021   -1.996316
