84

C      4.378257    1.797867    0.525846
C     -6.040683    3.738314    2.002957
C     11.114129   -0.723072   -2.727626
C    -10.014724   -2.188917   -1.504865
C      3.026194   -1.318209    2.394991
C      2.438120   -1.221754    0.113147
C     -3.516199   -0.525706   -0.768677
C      1.715487   -1.084346    2.745664
C      1.114834   -0.985390    0.467594
C     -2.778078   -1.695263   -0.553468
C      6.119861    0.059385   -2.230784
C     -7.313845    2.320270   -1.156637
C      5.243664    1.056895   -1.531166
C     -6.982293    3.414782   -0.190968
C      4.803397   -1.637183    0.623740
C     -4.053967    1.846780   -0.212350
C     -2.315508    0.516323    0.958539
C      8.516955   -0.434493   -1.761008
C     -8.152410   -0.025004   -0.880054
C      7.948156   -0.775017    0.879622
C     -6.132171   -0.476860    0.938162
C      3.408971   -1.390802    1.075026
C     -3.286530    0.595517   -0.007102
C      7.224651   -0.286798   -1.302724
C     -7.239445    0.975720   -0.548878
C      0.719444   -0.910847    1.787133
C      6.901975   -0.451858    0.026361
C     -6.225426    0.756759    0.360657
C      5.510375   -0.283656    0.471628
C     -5.304156    1.877377    0.652103
C     -1.803485   -1.743971    0.430411
C      9.244126   -0.923869    0.424907
C     -7.032115   -1.466534    0.612807
C      9.553091   -0.756099   -0.906087
C     -8.064879   -1.271231   -0.302181
C     -1.565467   -0.623421    1.199904
N      4.737960    0.644364   -0.275552
N     -5.909965    3.162606    0.700895
O     -1.086178   -2.916772    0.625250
O     10.268481   -1.248960    1.314137
O     -6.937964   -2.728520    1.202421
O     10.862057   -0.910508   -1.340838
O     -8.952037   -2.303458   -0.599483
O     -0.592713   -0.674954    2.181946
H      5.323815    2.203444    0.963488
H      3.800637    2.543144   -0.021303
H      3.785444    1.425468    1.400594
H     -7.078457    3.691022    2.343691
H     -5.705045    4.814304    1.988174
H     -5.361097    3.181044    2.695506
H     12.179936   -0.840223   -2.978087
H     10.738310    0.307762   -2.987099
H     10.479491   -1.444675   -3.271793
H     -9.782423   -2.608919   -2.510321
H    -10.429870   -1.177508   -1.528605
H    -10.842426   -2.847646   -1.113308
H      3.792667   -1.451358    3.160158
H      2.660464   -1.264564   -0.955226
H     -4.277315   -0.481318   -1.533210
H      1.423831   -1.028549    3.786631
H      0.381755   -0.850367   -0.329181
H     -2.956005   -2.566899   -1.144302
H      6.519608    0.571265   -3.144877
H      5.581419   -0.831347   -2.598383
H     -8.357258    2.459262   -1.530071
H     -6.614850    2.406440   -2.014687
H      5.841906    1.992599   -1.420670
H      4.421239    1.320544   -2.242783
H     -6.862785    4.382165   -0.744213
H     -7.908474    3.575726    0.435799
H      5.367050   -2.217791    1.406541
H      4.757830   -2.189096   -0.317218
H     -4.384610    1.954917   -1.262613
H     -3.415873    2.686248    0.117552
H     -2.114842    1.390677    1.575159
H      8.765250   -0.303535   -2.810738
H     -8.930082    0.194016   -1.598617
H      7.713859   -0.908964    1.924929
H     -5.326957   -0.633747    1.653077
H      5.573773    0.099443    1.533472
H     -4.919614    1.669383    1.697178
H     -1.262780   -3.718052    0.068470
H     10.060201   -1.377793    2.305934
H     -6.187665   -2.906008    1.881398
