48

C      6.173320    1.803099   -1.544940
C     -6.778176   -0.133683    0.473307
C      3.592488   -2.046382   -2.446551
C      2.290848    2.053342    0.116707
C      3.559670    2.002301   -0.421225
C     -2.040631   -0.290395   -1.195018
C     -0.610518   -0.698058   -1.221797
C      0.188669    1.011620    0.820835
C     -4.000085   -0.226717    0.304514
C     -2.422464   -0.282863    2.556235
C      1.264444   -1.542107   -0.052145
C      1.547775    0.905304    0.236102
C     -2.622238   -0.272765    0.177340
C     -1.843443   -0.300510    1.309964
C      2.050067   -0.298069   -0.173357
C     -0.372190   -0.349628    1.125743
C     -3.796213   -0.236919    2.656171
C      4.080157    0.778027   -0.841750
C     -4.615666   -0.207828    1.538902
C      3.311098   -0.365951   -0.710837
N     -0.136683   -1.267682    0.008487
O     -4.457484   -0.216497    3.891964
O      5.349936    0.663389   -1.390646
O     -6.003862   -0.161451    1.675568
O      3.805236   -1.600954   -1.122149
H      5.713641    2.562785   -2.225343
H      7.130119    1.511038   -2.003664
H      6.406741    2.245707   -0.552494
H     -6.518989   -0.950918   -0.203679
H     -6.565374    0.825671   -0.077461
H     -7.862672   -0.107292    0.703781
H      3.239366   -3.108497   -2.481493
H      2.871172   -1.356569   -2.954234
H      4.516714   -2.009881   -3.064841
H      1.914421    3.028347    0.435702
H      4.191749    2.868262   -0.541155
H     -2.233348    0.662305   -1.734388
H     -2.627070   -1.073617   -1.755375
H     -0.407348   -1.451523   -2.025162
H     -0.013487    0.206212   -1.538733
H     -0.429516    1.600281    0.124269
H      0.239970    1.589590    1.777605
H     -4.625663   -0.204438   -0.594557
H     -1.814505   -0.304573    3.473314
H      1.551545   -2.277355   -0.807059
H      1.549354   -1.992288    0.943920
H      0.125404   -0.744359    2.033335
H     -3.866279   -0.237510    4.712335
