19

C      2.341437    0.442741   -0.153479
C     -1.003126    1.192457    1.382611
C      0.409148    1.163396    1.048547
C     -1.813108    0.417120    0.707698
C      0.836502    0.377612    0.097309
C     -1.435570   -0.500742   -0.377252
C      0.000982   -0.500933   -0.685650
O     -1.927922   -1.801198   -0.112408
O      0.498107   -1.825398   -0.719510
H      2.590382    1.372640   -0.698998
H      2.632250   -0.464496   -0.719032
H      2.825796    0.484535    0.826652
H     -1.349941    1.859892    2.187068
H      1.103234    1.815724    1.613744
H     -2.885689    0.454717    0.978332
H     -2.036404   -0.190034   -1.300600
H      0.095430   -0.169153   -1.783342
H     -2.149414   -2.278384   -0.953684
H      1.267907   -1.850496   -1.338005
