23

C     -0.515861    1.190878   -0.384869
C     -1.268389   -1.077022   -0.394933
C     -1.757509    1.517670    0.155856
C     -2.485586   -0.741092    0.137198
C      1.010225   -0.563069   -1.230033
C     -0.277516   -0.137121   -0.661866
C     -2.728189    0.586847    0.416041
C      1.950393   -0.948428   -0.114833
C      2.236166    0.141129    0.837087
O     -3.971731    0.916482    0.957911
O      3.168054   -1.378569   -0.709177
O      1.342663    0.662330    1.541960
O      3.526437    0.632637    0.985228
H      0.213187    1.976640   -0.571678
H     -1.084300   -2.120471   -0.611430
H     -1.969615    2.568800    0.384605
H     -3.235998   -1.502951    0.332501
H      0.900384   -1.405373   -1.951311
H      1.459513    0.335163   -1.748345
H      1.567247   -1.852324    0.411746
H     -4.727165    1.142325    0.321727
H      3.024170   -1.570464   -1.658548
H      3.623419    1.625984    1.229736
