35

C      2.962401   -1.375428   -0.409432
C      2.228130    0.842789    0.023497
C      4.282905   -0.944574   -0.353621
C      3.527151    1.262769    0.077670
C     -4.054211    1.251256   -0.449418
C     -2.025184    1.535921   -1.605012
C      1.944948   -0.488436   -0.222331
C      4.544028    0.372048   -0.110127
C     -3.330563    1.917068   -1.405185
C     -3.503011    0.207969    0.316451
C     -1.470291    0.502014   -0.849694
C     -2.197905   -0.179275    0.123391
C     -1.568840   -1.270234    0.909759
C     -0.104189   -0.890991    1.093661
C      0.512251   -0.870241   -0.266726
O      5.867681    0.825600   -0.050089
O     -3.914046    2.957201   -2.153780
O     -4.309541   -0.408379    1.258134
O     -1.569559   -2.407391    0.067940
O      0.539056   -1.726086    1.987288
O     -0.153685    0.106173   -1.041857
H      2.751557   -2.423341   -0.603170
H      1.431983    1.550080    0.172396
H      5.102610   -1.662427   -0.504973
H      3.703923    2.321632    0.274141
H     -5.086859    1.537905   -0.277159
H     -1.450526    2.048566   -2.348734
H     -2.037676   -1.488143    1.866029
H     -0.097233    0.128384    1.529600
H      0.450201   -1.886394   -0.709274
H      6.076096    1.795978    0.129068
H     -3.860333    3.913086   -1.816959
H     -3.953177   -1.152002    1.808059
H     -1.716612   -3.230101    0.589452
H      0.478517   -2.672995    1.783731
