23

C      2.383781    1.520671    0.038955
C      1.099782    1.194725   -0.343020
C     -0.695878   -0.375317   -0.749605
C     -1.687912   -0.356232    0.382505
C      3.215196    0.493513    0.428101
C     -3.020735   -0.689097   -0.174615
C      1.469177   -1.044978    0.034116
N     -1.736161    0.943513    0.998754
N      2.742999   -0.746561    0.415922
N      0.640260   -0.068745   -0.348381
O      4.528316    0.754072    0.827081
O     -3.971431    0.129164   -0.059936
O     -3.232064   -1.908245   -0.828707
O      1.146529   -2.245399    0.066234
H      2.741979    2.525929    0.040812
H      0.403519    1.968237   -0.658981
H     -0.687477   -1.386248   -1.217200
H     -1.093120    0.312637   -1.535310
H     -1.467961   -1.097559    1.170273
H     -1.164883    0.947329    1.868938
H     -2.732873    1.098586    1.298246
H      5.279623    0.167180    0.461174
H     -4.160668   -2.137178   -1.120583
