23

C      2.140987   -1.349379    0.158924
C      0.903844   -0.947198    0.576754
C     -0.825827    0.775088    0.826585
C     -1.882868    0.665854   -0.220141
C      2.960458   -0.459869   -0.472278
C     -2.051985   -0.737684   -0.629880
C      1.286035    1.169574   -0.239621
N     -3.167573    1.180143    0.296003
N      2.492675    0.789563   -0.650765
N      0.449190    0.304812    0.391421
O      4.222876   -0.825037   -0.912520
O     -3.122902   -1.328310   -0.370508
O     -1.029763   -1.379408   -1.294757
O      0.880556    2.363099   -0.428197
H      2.493761   -2.366609    0.316523
H      0.244082   -1.657519    1.090435
H     -0.740565    1.840296    1.159117
H     -1.124639    0.221357    1.757893
H     -1.656397    1.247009   -1.132383
H     -3.121374    2.206861    0.169810
H     -3.260889    0.864866    1.267727
H      4.994467   -0.215407   -0.674307
H     -1.084148   -2.362100   -1.549020
