35

C      2.649623   -1.374272    0.188620
C      2.560077    0.950399    0.495102
C      4.015306   -1.385059    0.388315
C      3.926674    0.948139    0.696103
C     -4.423695    0.271991    0.345528
C     -2.579508    0.636799    1.764710
C      1.898226   -0.220712    0.236561
C      4.685972   -0.203319    0.649614
C     -3.944398    0.595065    1.595510
C     -3.556135   -0.002330   -0.708652
C     -1.709020    0.362242    0.709594
C     -2.170138    0.037316   -0.548572
C     -1.277067   -0.258702   -1.702976
C      0.099525    0.246698   -1.350884
C      0.451341   -0.328106    0.008872
O      6.068249   -0.176490    0.856920
O     -4.827134    0.868544    2.645981
O     -4.055225   -0.327222   -1.962388
O     -1.170443   -1.643972   -1.877625
O      1.050721   -0.048709   -2.313276
O     -0.316164    0.416025    0.927804
H      2.155279   -2.336758   -0.016567
H      1.967155    1.853707    0.531971
H      4.613228   -2.286370    0.352452
H      4.439611    1.885720    0.900590
H     -5.506115    0.229912    0.176982
H     -2.179473    0.886944    2.733041
H     -1.597170    0.258079   -2.633366
H      0.007953    1.365910   -1.260065
H      0.121166   -1.383270    0.077633
H      6.692944   -0.045974    0.052021
H     -5.096381    1.849844    2.735517
H     -3.446643   -0.532828   -2.736849
H     -1.266150   -1.813136   -2.831906
H      1.717807    0.703895   -2.289073
