14

C      1.469722    0.334104   -0.403177
C     -0.958475   -0.243483   -0.268203
C      0.454311   -0.627293    0.112036
N     -1.388122    0.977085    0.339399
O      0.514069   -0.784965    1.489005
H      1.121497    1.372392   -0.427408
H      1.765004    0.014441   -1.427414
H      2.368684    0.306519    0.264429
H     -1.647063   -1.050360   -0.019853
H     -0.991817   -0.111497   -1.372324
H      0.645093   -1.621892   -0.341005
H     -0.840500    1.807478    0.095090
H     -2.400121    1.090857    0.169032
H     -0.112282   -1.463388    1.790393
