28

C     -0.387150   -0.503456   -0.468249
C     -1.609809   -0.874684    0.379926
C      0.709608   -1.434561   -0.064092
C     -2.792769   -0.005394    0.065505
C     -3.914285   -0.442697    0.928577
C      2.764395   -0.093762   -0.603610
N     -2.557080    1.394628    0.238041
N      2.274463    0.889407    0.072333
N      1.940587   -1.236872   -0.757859
N      4.070675    0.029869   -1.137605
N      5.025969    0.863020   -0.553687
O     -4.243572   -1.648032    0.916855
O     -4.608170    0.431248    1.743837
O      5.100523    1.066796    0.800352
O      5.852998    1.457399   -1.266986
H     -0.131008    0.561443   -0.283003
H     -0.594051   -0.635596   -1.534893
H     -1.366881   -0.787811    1.453753
H     -1.904177   -1.927516    0.194402
H      0.813666   -1.334793    1.053270
H      0.362870   -2.475236   -0.219599
H     -3.103056   -0.148439   -0.997749
H     -2.487443    1.684752    1.236290
H     -3.173485    1.975769   -0.339924
H      2.781435    1.777007    0.252701
H      2.300853   -1.964680   -1.442713
H      4.272748   -0.551622   -2.004549
H     -5.397855    0.160191    2.338676
