17

C      1.633803    1.550216   -0.581706
C      1.985190    0.226265   -0.832862
C      0.420391    1.920207   -0.072652
C      1.024945   -0.748206   -0.538058
C     -0.520560    0.955415    0.215392
C     -1.273918   -1.617724    1.728174
C     -0.187737   -0.354287   -0.027239
C     -1.195992   -1.397410    0.280718
N     -1.316723   -1.797937    2.870957
O     -2.439650   -0.996182   -0.194294
H      2.380794    2.320909   -0.809900
H      2.934740   -0.042436   -1.229413
H      0.165299    2.953121    0.115784
H      1.279811   -1.783413   -0.726612
H     -1.492670    1.248860    0.622964
H     -0.945401   -2.339893   -0.249345
H     -2.452321   -0.097507   -0.571908
