43

C      4.284844    0.243805    0.704473
C      3.090254    0.942045    0.041604
C      4.239384   -1.192021    0.319693
C     -3.931371    1.046559   -0.057896
C     -2.656290    1.776327    0.262184
C      0.550324    0.133717   -1.190411
C     -2.416373   -0.677743    0.730072
C     -0.323692    1.935613   -0.060474
C      0.377714   -1.596570    0.397050
C      0.565241    0.861628    0.163026
C     -0.404540   -0.998392   -0.783108
C     -3.910224   -0.391331    0.479678
C      1.816775    0.493001    0.728983
C     -1.605638   -0.173627   -0.419086
C      2.904795   -1.764689    0.567558
N     -1.551152    1.259638   -0.557916
N      1.707095   -1.007969    0.563626
O     -4.389509   -1.267818   -0.489750
O      2.821053   -2.997815    0.796002
H      4.143681    0.331784    1.797391
H      5.215964    0.687860    0.342737
H      3.209861    2.011093    0.267880
H      3.083952    0.823557   -1.040194
H      4.983994   -1.803606    0.869246
H      4.437146   -1.311880   -0.780397
H     -4.033679    0.983619   -1.154108
H     -4.775022    1.543647    0.421909
H     -2.371769    1.720934    1.326367
H     -2.818389    2.840453    0.028899
H      1.478039   -0.352529   -1.468501
H      0.187684    0.701191   -2.027002
H     -2.226667   -0.275912    1.713245
H     -2.311833   -1.786277    0.733109
H     -0.544698    2.609881    0.768408
H     -0.011897    2.583385   -0.921653
H      0.559303   -2.666541    0.100510
H     -0.200674   -1.635305    1.311675
H     -0.079126    0.369037    0.986516
H     -0.503315   -1.682271   -1.614839
H     -4.449442   -0.491252    1.422034
H      1.987419    0.660337    1.819503
H     -2.307027   -0.408688   -1.306935
H     -3.822198   -2.076874   -0.574721
