18

C     -0.746769    0.863353   -1.085584
C      1.040645   -0.725612   -0.336388
C      1.808751    0.240747    0.444069
C     -1.111308   -0.688739    0.837493
C     -0.429228   -0.466097   -0.444404
O      3.040500    0.010120    0.572419
O      1.319225    1.381450    1.054533
O     -1.931018   -1.614493    0.962652
O     -0.825632    0.146957    1.897823
O     -0.918282   -1.449396   -1.343792
H      0.117063    1.348405   -1.547981
H     -1.562499    0.766482   -1.855000
H     -1.156029    1.514340   -0.282330
H      1.485596   -0.761437   -1.368436
H      1.164869   -1.727549    0.155940
H      1.984833    2.068865    1.376371
H     -1.479242    0.294362    2.661486
H     -1.801476   -1.201757   -1.698872
