49

C      6.751010    0.331830    1.210844
C     -5.166497    0.744824    0.998556
C     -4.226844    2.693911    0.107812
C     -4.666890    0.893911   -1.286070
C      5.433627    1.063054    1.325702
C      4.271250    0.139828    0.854554
C      4.568104   -0.197535   -0.547685
C      3.741205   -1.116720   -1.322564
C      2.319398   -0.897206   -1.592611
C      1.441219   -0.915087   -0.409727
C     -3.171958   -1.636763    0.356732
C     -2.855444    0.845172    0.320047
C     -2.404513   -0.483346   -0.236036
C     -2.751426   -2.955130   -0.168787
C     -0.009769   -0.703157   -0.799414
N     -4.203101    1.209592    0.051019
O     -3.358709   -3.961700    0.299670
O     -1.756984   -3.056345   -1.110573
O     -0.264952   -0.546359   -2.016200
O     -1.021036   -0.678803    0.114381
H      6.633151   -0.770019    1.292954
H      7.182890    0.609517    0.218416
H      7.469775    0.706065    1.969782
H     -5.963117    0.156576    0.490030
H     -5.699283    1.617781    1.432257
H     -4.724409    0.222168    1.874929
H     -3.636408    3.026533    0.986467
H     -5.249427    3.076691    0.079119
H     -3.636471    2.998584   -0.798323
H     -5.788132    0.939696   -1.251509
H     -4.411622   -0.127655   -1.612138
H     -4.338552    1.648061   -2.030915
H      5.260148    1.270864    2.401664
H      5.421748    2.007804    0.777491
H      4.208137   -0.697079    1.549462
H      3.397350    0.822071    1.019367
H      5.636881   -0.624498   -0.536471
H      4.753028    0.789215   -1.088822
H      3.908765   -2.177843   -0.887685
H      4.260019   -1.269321   -2.348168
H      1.939650   -1.733839   -2.277125
H      2.140064    0.032751   -2.228408
H      1.643199   -0.241626    0.397041
H      1.464473   -1.972907    0.000969
H     -2.973987   -1.699108    1.471175
H     -4.279483   -1.511311    0.306843
H     -2.671664    0.914571    1.416198
H     -2.184627    1.624698   -0.130804
H     -2.429789   -0.412411   -1.327870
