43

C      4.321890   -0.279373    0.430790
C      3.037874   -0.920496   -0.071129
C      4.183742    1.187797    0.659408
C     -3.439573   -1.026231    1.338918
C     -2.793477   -1.731257    0.163907
C      0.450020   -0.274825   -1.273382
C     -2.344623    1.023544    0.631463
C     -0.381543   -1.772834    0.278805
C      0.446588    1.740135   -0.062702
C      0.546302   -0.713722    0.199299
C     -0.443078    0.952527   -1.039394
C     -3.724534    0.392406    0.826910
C      1.854776   -0.307588    0.593048
C     -1.631566    0.270815   -0.416750
C      2.991797    1.783353    0.002507
N     -1.605987   -1.165686   -0.302942
N      1.772502    1.134751    0.159081
O     -4.263199    0.240376   -0.452496
O      3.010880    2.833809   -0.685140
H      5.112587   -0.435403   -0.334393
H      4.696663   -0.758785    1.357519
H      3.036933   -0.920485   -1.157213
H      3.086874   -1.986206    0.255696
H      5.120489    1.706098    0.370617
H      4.040954    1.374398    1.764508
H     -4.354851   -1.543991    1.627957
H     -2.709605   -0.903650    2.169549
H     -2.577912   -2.778846    0.529583
H     -3.597214   -1.866910   -0.595311
H      1.364982    0.107516   -1.700611
H     -0.001220   -0.991178   -1.940539
H     -2.576131    2.044695    0.200602
H     -1.930670    1.186994    1.599513
H     -0.660108   -2.204813    1.261160
H     -0.156186   -2.641293   -0.401677
H     -0.061523    1.998208    0.858094
H      0.684279    2.706514   -0.582177
H     -0.014518   -0.035524    0.944330
H     -0.611881    1.490909   -1.963319
H     -4.355636    0.956430    1.509182
H      2.098143   -0.240834    1.686457
H     -2.398253    0.347262   -1.278153
H     -5.224988    0.021394   -0.395777
