20

C      0.311101    1.201320    0.915210
C      0.401707   -0.493756   -0.819689
C      1.029803    0.513325    0.055061
C     -1.111073    0.979754    1.015956
C     -1.076134   -0.521503   -0.845271
C     -1.619243   -0.341658    0.577889
C      2.496899    0.756618   -0.036138
O     -1.859600    1.897920    1.463924
O     -1.536746   -1.771761   -1.270119
O     -2.986987   -0.447709    0.614256
O      3.021031    1.607489    0.703126
O      3.259429    0.046089   -0.929172
H      0.841741    1.932215    1.532874
H      0.787714   -0.294193   -1.866337
H      0.857046   -1.479483   -0.570276
H     -1.534393    0.225054   -1.504060
H     -1.192337   -1.182875    1.165922
H     -1.015466   -2.485974   -0.868391
H     -3.328881   -0.022146    1.438312
H      4.254387   -0.118726   -0.773076
