17

C     -0.172157    0.179049    0.607997
C     -1.223831    1.196928    0.597779
C      2.106696   -0.332879   -0.148092
C     -1.954613   -0.658289   -0.388376
N      2.065882   -1.475522    0.477706
N      1.018423    0.580346   -0.094369
N     -0.761504   -0.970416   -0.054840
N     -2.260286    0.672919    0.004232
O     -1.227353    2.487788    1.089640
O      3.240579    0.004629   -0.887270
O     -2.813199   -1.540887   -1.051427
H      0.053618   -0.138057    1.661466
H      1.221971   -1.722344    1.025533
H      1.133319    1.502622   -0.568215
H     -1.707774    3.229108    0.570509
H      4.119752   -0.481633   -0.755660
H     -2.839523   -2.533363   -0.844692
