17

C     -0.495344   -0.098917   -0.446441
C     -0.721722    0.973820    0.508261
C      1.963922   -0.265060   -0.173726
C     -2.434658   -0.443679    0.561260
N      2.034550    0.908463   -0.707899
N      0.680727   -0.885020   -0.189988
N     -1.653365   -0.940374   -0.322740
N     -1.852060    0.741759    1.072208
O      0.071729    2.065904    0.811243
O      3.035483   -0.919312    0.390211
O     -3.679573   -0.984540    0.967800
H     -0.512588    0.267669   -1.518640
H      2.987260    1.362593   -0.692932
H      0.577841   -1.898222   -0.019788
H     -0.027692    2.501898    1.710135
H      3.968434   -0.484581    0.328824
H     -3.942943   -1.902401    0.627183
