12

C      1.321887   -0.302867    0.226129
C     -1.030726   -0.292838   -0.567185
C      0.053422    0.446329    0.211807
O      2.323983    0.219245   -0.225461
O     -1.216781   -1.563740   -0.032410
O      0.211602    1.713429   -0.351817
H      1.306002   -1.305707    0.646572
H     -0.730796   -0.337471   -1.651207
H     -1.957203    0.298779   -0.517040
H     -0.310925    0.514359    1.251959
H     -0.952000   -1.540019    0.936965
H      0.981537    2.150501    0.071689
