16

C      0.857742   -0.556037    0.367192
C     -0.577180   -0.831005   -0.027251
C      1.449766    0.498403   -0.474931
C     -1.486137    0.276943    0.283562
O      0.939026   -0.237498    1.714478
O     -0.580572   -1.141065   -1.381374
O      1.472301    0.393757   -1.726417
O      2.001698    1.641024    0.084068
O     -1.592717    0.673334    1.469487
O     -2.244724    0.917382   -0.683057
H      1.418937   -1.509413    0.157669
H     -0.895393   -1.725730    0.572999
H      1.413198   -0.952774    2.210465
H     -1.414088   -1.566404   -1.645874
H      2.116024    2.458966   -0.516552
H     -2.877880    1.660118   -0.404462
