29

C     -2.149105   -0.160607    1.222586
C     -1.717761    0.997058   -0.865626
C      2.030094   -1.700643   -0.382878
C      0.892600    1.791714    0.016385
C      1.394556    0.681015   -0.893162
C      1.005030   -0.109526    1.275176
C      0.010839    1.030391    0.958536
C     -0.384885   -0.992884   -0.330952
C     -1.065321    0.246267    0.242253
C      1.056359   -0.626414   -0.175443
O     -0.765955   -1.254462   -1.625276
H     -2.654518    0.748215    1.573273
H     -1.773496   -0.817150    2.017646
H     -2.911049   -0.724432    0.612510
H     -1.441365    0.557335   -1.867691
H     -2.844442    0.907379   -0.840001
H     -1.501636    2.062142   -0.903152
H      1.748106   -2.296552   -1.272076
H      3.031368   -1.270620   -0.573292
H      2.020753   -2.389147    0.484522
H      1.748597    2.187551    0.625185
H      0.425932    2.609671   -0.508465
H      0.955158    0.729950   -1.896483
H      2.477209    0.775736   -0.988088
H      1.979570    0.283323    1.557698
H      0.568571   -0.848539    1.945391
H     -0.312862    1.556084    1.840313
H     -0.603499   -1.816584    0.372001
H     -1.218848   -2.156273   -1.620889
