47

C      0.030304    0.800409    1.845239
C      6.989474    0.235178   -0.571305
C     -6.584020    0.156744    0.877582
C      2.895334   -0.523533    0.310006
C      4.241842   -0.271703    0.036415
C     -2.035255    2.097236   -0.404949
C     -0.679161    2.326260    0.166759
C      0.619087   -1.110799   -0.372087
C      2.550163   -0.921876   -1.972751
C     -3.899847    0.549664    0.251882
C     -2.097006   -1.543079    0.237366
C      2.020986   -0.856056   -0.703776
C     -2.565176    0.753659   -0.060721
C     -1.655769   -0.285866   -0.070749
C     -0.260432    0.076332   -0.420583
C      3.872710   -0.676726   -2.256899
C     -3.442694   -1.746379    0.552098
C      4.739953   -0.346116   -1.245987
C     -4.357536   -0.714330    0.564634
N      0.097503    1.163943    0.446332
O      4.355227   -0.759370   -3.573511
O     -3.855445   -3.022749    0.857594
O      6.060223   -0.107663   -1.573997
O     -5.709373   -0.946165    0.885602
H      0.293841   -0.246867    1.988823
H      0.780012    1.420334    2.378407
H     -0.971862    0.999719    2.275148
H      7.909019    0.652317   -1.037801
H      7.220657   -0.711982   -0.015079
H      6.552340    0.973983    0.117052
H     -7.594553   -0.118146    1.181635
H     -6.673452    0.614673   -0.145559
H     -6.148740    0.962248    1.514432
H      2.592482   -0.444880    1.329474
H      4.920438   -0.010670    0.844005
H     -1.987974    2.174066   -1.521931
H     -2.732820    2.877813   -0.015810
H     -0.775122    2.961040    1.094374
H     -0.091755    2.939648   -0.576539
H      0.231078   -1.828398   -1.155931
H      0.559024   -1.690219    0.576063
H      1.892301   -1.178219   -2.778747
H     -4.598570    1.392268    0.252092
H     -1.377945   -2.347076    0.226277
H     -0.276211    0.465179   -1.456532
H      3.769348   -0.995215   -4.344593
H     -4.822626   -3.188633    1.087214
