23

C      2.196222   -0.200168    0.257629
C      1.113356   -0.034114   -0.784054
C      0.046779   -1.098574   -0.676897
C     -0.956875   -0.778141    0.416171
C     -1.481943    0.618992    0.218816
C     -0.281667    1.543924    0.175120
O      0.632088   -2.328455   -0.469198
O     -0.252426   -0.790813    1.626389
O     -2.300524    0.746583   -0.882758
O     -0.734871    2.852999   -0.037966
O      0.598891    1.240506   -0.832781
H      2.282637   -1.269897    0.561900
H      3.163666    0.193561   -0.141350
H      1.940450    0.442176    1.117235
H      1.620771   -0.212503   -1.777877
H     -0.458996   -1.140857   -1.671815
H     -1.741901   -1.534104    0.404185
H     -2.079333    0.879278    1.111747
H      0.167767    1.519812    1.190128
H      0.414966   -3.004930   -1.159901
H     -0.757277   -1.289237    2.325118
H     -1.905423    0.448154   -1.729008
H     -1.226358    3.195806    0.759168
