25

C     -2.919819   -0.173657    1.294178
C     -2.596456    0.509317   -0.986376
C      3.632970   -0.061893   -0.400382
C      1.512009    1.032434    0.177332
C      0.063000    1.104012    0.466590
C     -0.060907   -1.244860   -0.388928
C     -2.074247    0.037651    0.310801
C      2.152351   -0.079654   -0.118803
C     -0.639798   -0.201919    0.534022
C      1.404607   -1.321500   -0.167068
O      1.989465   -2.417801   -0.024495
H     -2.596985   -0.521911    2.275327
H     -3.998924   -0.016618    1.199549
H     -2.688972    1.630676   -0.963637
H     -1.945342    0.257044   -1.843099
H     -3.609496    0.112333   -1.210004
H      4.110213   -0.868182    0.179762
H      3.784962   -0.161220   -1.500225
H      4.076757    0.888054   -0.101021
H      2.137522    1.937584    0.198769
H     -0.126621    1.673733    1.422136
H     -0.365746    1.789538   -0.323210
H     -0.508800   -2.231365   -0.152556
H     -0.224308   -1.035224   -1.446945
H     -0.507435   -0.636573    1.568285
