45

C      6.906762    0.170185   -0.791752
C     -6.650231    0.492759   -0.024062
C      2.937597   -0.622990   -1.750568
C      4.242646   -0.357375   -1.397111
C     -1.958953    1.318973    1.618200
C     -0.503315    1.085366    1.811747
C      0.546829   -0.945641   -1.068756
C     -3.875746    0.519417    0.254243
C     -2.258924   -0.753642   -1.514105
C      1.269050   -0.483174    1.606487
C      1.974931   -0.663844   -0.774972
C     -2.513260    0.567916    0.443940
C     -1.707139   -0.079475   -0.456750
C      2.312954   -0.442200    0.534362
C     -0.254905   -0.006600   -0.222612
C     -3.639514   -0.790439   -1.687828
C      4.632228   -0.128735   -0.100020
C     -4.473611   -0.148089   -0.797149
C      3.636932   -0.175005    0.877057
N     -0.039252   -0.150978    1.178907
O     -4.181182   -1.475370   -2.760474
O      4.025172    0.052825    2.177533
O      5.960109    0.141564    0.260351
O     -5.849753   -0.186453   -0.972864
H      6.564133    0.933085   -1.541513
H      7.923228    0.374132   -0.445276
H      6.808915   -0.817659   -1.313890
H     -6.408015    0.071189    0.963332
H     -7.731624    0.419638   -0.282823
H     -6.329767    1.560826    0.006848
H      2.669550   -0.801063   -2.807866
H      5.019050   -0.320987   -2.157245
H     -2.239407    2.386548    1.572581
H     -2.485050    0.907567    2.529287
H      0.050221    1.907943    1.278508
H     -0.174917    1.129475    2.864415
H      0.372329   -2.012564   -0.812613
H      0.306480   -0.724618   -2.130402
H     -4.519534    1.032979    0.968353
H     -1.642005   -1.283533   -2.254119
H      1.578125    0.243571    2.410551
H      1.324693   -1.497593    2.095332
H      0.056290    1.032186   -0.532783
H     -5.164088   -1.540128   -2.941897
H      3.481972    0.060010    3.000915
