23

C     -2.358856    1.068278   -0.288226
C     -1.062071    0.438314   -0.686825
C     -0.778065   -0.845863    0.096652
C      0.671548   -1.197391   -0.216726
C      1.517005   -0.150096    0.508884
C      0.805147    1.171643    0.471355
O     -0.978892   -0.649714    1.459526
O      1.006103   -2.472844    0.163904
O      2.734135   -0.001652   -0.146759
O      1.774827    2.195695    0.385684
O      0.004558    1.311142   -0.657692
H     -2.327208    2.142588   -0.597145
H     -2.570421    1.020347    0.792702
H     -3.219670    0.605404   -0.827113
H     -1.170964    0.100390   -1.753616
H     -1.387293   -1.684205   -0.272492
H      0.803777   -1.056239   -1.297255
H      1.683795   -0.543594    1.521743
H      0.242762    1.346710    1.403137
H     -1.459388   -1.445662    1.818612
H      1.288617   -2.994850   -0.643822
H      2.880608   -0.827383   -0.662841
H      1.899946    2.468983   -0.571689
