16

C     -1.573493    0.132646   -0.495945
C      1.223719    0.953497   -0.401173
C     -0.535606   -0.800169    0.000736
C      0.761878   -0.227047    0.378696
O     -1.067608   -1.474815    1.121408
O      1.734585   -1.252683    0.313656
S     -1.638390    1.652056    0.532610
S      0.364541    2.424013    0.300883
H     -2.563890   -0.358131   -0.445433
H     -1.298266    0.415430   -1.553597
H      0.938313    0.907176   -1.482364
H      2.288587    1.123417   -0.247101
H     -0.379343   -1.592211   -0.764314
H      0.749000    0.070948    1.467653
H     -1.236173   -0.768487    1.818839
H      2.232145   -1.205640   -0.544555
