16

C     -0.238814    1.831266    0.191094
C     -0.892865   -0.422185   -0.632259
C     -0.086615    0.359225    0.401625
C      1.336237   -0.007660    0.273413
N     -0.736128   -1.837634   -0.416377
O      2.204372    0.841062    0.027730
O      1.704896   -1.328613    0.431584
H     -1.050665    2.053463   -0.534034
H     -0.476855    2.345624    1.147949
H      0.672829    2.311709   -0.210872
H     -0.512154   -0.171358   -1.652643
H     -1.943334   -0.080639   -0.608603
H     -0.444714    0.058973    1.413671
H     -1.659206   -2.288801   -0.652352
H     -0.519857   -2.029682    0.598582
H      2.642872   -1.634750    0.221492
