19

C     -0.230890    1.365912    0.820143
C     -1.475308    0.192924   -1.012805
C     -0.660492   -1.057835    0.908831
C      0.950950   -0.236001   -0.601028
C      1.537098   -1.135468    0.437839
C     -0.382883    0.104542    0.017097
O      1.657734    0.928075   -0.765706
O      2.701559   -1.596993    0.385420
O      0.602319   -1.365707    1.439092
H     -1.156543    1.715281    1.274845
H      0.183992    2.139983    0.110509
H      0.593175    1.188290    1.548407
H     -2.411012    0.468751   -0.510163
H     -1.203175    0.869594   -1.826107
H     -1.619784   -0.821627   -1.431883
H     -1.385070   -0.832956    1.721454
H     -1.014759   -1.946959    0.357184
H      0.844695   -0.817318   -1.552168
H      2.468395    0.837512   -1.320960
