26

C      4.257286    1.236349    0.183654
C      3.302904    0.291386   -0.541954
C     -1.314863   -0.076320   -0.198780
C     -0.136953   -0.460121    0.671834
C     -2.550621   -0.075160    0.695333
C      1.102076   -0.485368   -0.116169
C     -3.751043    0.293793   -0.092277
N     -2.762056   -1.310118    1.364444
N      2.072135    0.288627    0.207797
O      1.260262   -1.322081   -1.204757
O     -4.749962   -0.464615   -0.085747
O     -3.832950    1.451883   -0.849877
H      4.807817    0.642305    0.920768
H      4.918403    1.710338   -0.557056
H      3.648267    2.016578    0.701175
H      3.174045    0.667614   -1.582868
H      3.780943   -0.701720   -0.570392
H     -1.196472    0.951984   -0.571440
H     -1.456520   -0.752449   -1.047223
H     -0.292768   -1.465251    1.107824
H     -0.096936    0.245133    1.524223
H     -2.392989    0.714884    1.484294
H     -2.083076   -1.564878    2.080693
H     -3.186628   -2.062383    0.822639
H      2.175305   -1.745960   -1.425137
H     -4.695604    1.975552   -0.957719
