24

C      2.058908   -0.425800    0.089317
C      0.988219   -0.205620   -0.987786
C     -0.132070   -1.165987   -0.869422
C     -1.392591   -0.662054   -0.299166
C     -1.469319    0.805502   -0.045658
C     -0.152626    1.493002    0.066977
O      3.155921    0.366350   -0.223691
O      0.338244   -2.282439   -0.138463
O     -1.652146   -1.315275    0.914891
O     -2.198218    1.463051   -1.061908
O     -0.394439    2.878890   -0.073080
O      0.635329    1.121151   -0.996200
H      2.406138   -1.495646    0.050205
H      1.694570   -0.195116    1.090039
H      1.548350   -0.378256   -1.954853
H     -0.347415   -1.597346   -1.892530
H     -2.280450   -0.914639   -0.954383
H     -2.043043    1.019716    0.898437
H      0.321253    1.313074    1.059118
H      4.010812    0.011493    0.128762
H     -0.018437   -2.321519    0.760241
H     -2.359606   -1.990008    0.844587
H     -3.146911    1.136134   -0.994886
H      0.429524    3.341343    0.269366
