14

C     -1.634184   -0.895023   -0.072016
C      1.919926    0.214972    0.258476
C     -0.678785    0.255274   -0.138719
C      0.691478   -0.121900   -0.509133
O     -0.714032    0.987409    1.047770
O      0.856633   -0.766545   -1.529920
H     -1.401611   -1.637254    0.691992
H     -1.678412   -1.374969   -1.082054
H     -2.649503   -0.465959    0.119651
H      2.718923   -0.547156    0.077880
H      1.731710    0.295225    1.351472
H      2.345736    1.188793   -0.076164
H     -1.057726    0.942538   -0.946358
H     -0.450153    1.924595    0.807123
