22

C     -1.981912   -1.062964    0.204299
C      2.352134   -0.122150    0.497479
C     -1.423966    0.335688    0.345351
C      0.970999   -0.247224   -0.120625
C     -0.010764    0.334487    0.869418
O     -3.331834   -0.943318   -0.126913
O      3.293332   -0.635797   -0.373672
O     -1.552253    1.041767   -0.828514
O      0.947846    0.461994   -1.307716
O      0.362244    1.654726    1.100061
H     -1.500583   -1.592337   -0.661534
H     -1.897819   -1.616181    1.146206
H      2.327435   -0.672285    1.458742
H      2.520194    0.980340    0.646363
H     -2.048010    0.847203    1.110935
H      0.755334   -1.306890   -0.361468
H      0.011049   -0.205551    1.819024
H     -3.731778   -0.107915    0.243140
H      4.131202   -0.856578    0.087761
H     -2.033260    0.571291   -1.542277
H      1.768707    0.967915   -1.481969
H      0.071704    2.173778    0.290850
