23

C     -0.205623   -0.518951    1.193160
C     -1.540539   -0.877913    1.382346
C     -0.871900    0.824564   -0.617841
C      2.294245   -0.252502   -0.883703
C      0.147167    0.346767    0.178532
C     -2.550985   -0.394590    0.580725
C     -2.192073    0.469993   -0.431272
C      1.558918    0.752173   -0.054358
N      2.500518   -1.510712   -0.207363
O     -3.884111   -0.758289    0.776187
O     -3.213175    0.967216   -1.252351
O      2.202461    1.075721    1.125097
H      0.562059   -0.926055    1.852483
H     -1.828416   -1.555575    2.174291
H     -0.587568    1.513567   -1.424652
H      1.647478   -0.476582   -1.771182
H      3.244313    0.108931   -1.274547
H      1.549102    1.705856   -0.662508
H      2.671156   -1.398952    0.813967
H      3.152551   -2.137820   -0.681637
H     -4.591940   -0.377488    0.161777
H     -2.927753    1.598994   -1.987389
H      2.864115    1.821647    1.010238
