18

C      1.229312   -1.115256    0.003105
C     -1.691916   -0.778068    0.030724
C      0.600649    0.241515   -0.045461
C     -0.787318    0.235604   -0.608641
O      1.357113    1.159456   -0.771191
O     -1.394715    1.480811   -0.524811
S      2.888118   -1.108012    0.676144
S     -1.906236   -0.537480    1.790839
H      1.289423   -1.489373   -1.048411
H      0.556148   -1.774598    0.588026
H     -2.686725   -0.681226   -0.455275
H     -1.319351   -1.784980   -0.221055
H      0.520154    0.679613    0.992689
H     -0.729587   -0.017166   -1.692152
H      1.849927    0.708871   -1.499288
H     -1.216142    1.924973    0.349076
H      3.617533    0.026855    0.365501
H     -2.176385    0.792376    2.070180
