53

C      4.853269   -2.571532   -0.785007
C     -5.207916    1.149292   -2.541978
C      3.339870    2.197956   -0.573980
C     -3.191881   -1.940174    0.794250
C      4.714225    2.202003   -0.609608
C     -4.569660   -2.185756    0.836906
C      1.221123    0.817528   -0.561607
C      3.457844   -0.171780   -0.662161
C     -3.513574   -0.301873   -0.866580
C     -1.185560   -0.766021   -0.065514
C      1.129942    1.614207    1.758142
C     -1.169077   -0.024517    2.254950
C      2.683725    0.986257   -0.600251
C     -2.653991   -0.999773   -0.054375
C      0.748178    0.498969    0.825647
C      5.474019    1.041722   -0.671112
C     -5.420422   -1.478286    0.016668
C      4.830137   -0.173750   -0.698065
C     -4.859734   -0.541592   -0.825239
C     -0.764244    0.352340    0.876057
O      2.483315    1.839286    1.865888
O     -0.511570   -1.233545    2.564487
O      6.853328    1.052969   -0.706607
O     -6.808206   -1.691694    0.026174
O     -1.298171    1.560120    0.434912
O      5.564548   -1.348488   -0.759542
O     -5.757626    0.165849   -1.652394
H      4.282064   -2.763095    0.136771
H      4.133975   -2.491730   -1.649546
H      5.601497   -3.365419   -1.008890
H     -6.008326    1.756017   -2.971285
H     -4.564468    1.834155   -1.915457
H     -4.571536    0.623231   -3.252267
H      2.758106    3.103343   -0.530868
H     -2.620495   -2.550061    1.472482
H      5.279501    3.147352   -0.590328
H     -4.993137   -2.926257    1.505328
H      0.984159    0.002305   -1.285701
H      0.763880    1.760616   -0.943270
H      2.956460   -1.132123   -0.683657
H     -3.132937    0.431615   -1.534301
H     -0.699001   -1.692832    0.295293
H     -0.907656   -0.599541   -1.105374
H      0.749840    1.471577    2.807081
H      0.645989    2.587468    1.447642
H     -0.984643    0.678372    3.054949
H     -2.255301   -0.293199    2.330798
H      1.230975   -0.462956    1.136273
H      2.854067    1.296554    2.586641
H     -0.905971   -1.536232    3.423223
H      7.360917    1.926313   -0.688405
H     -7.169693   -2.390039    0.662020
H     -1.230153    1.534852   -0.571379
