28

C      3.358557    0.444186   -0.826062
C      2.122946    1.164028   -0.289183
C      1.640692    0.458740    0.984162
C      1.286868   -0.943579    0.638574
C     -2.889157    1.020477    0.057578
C      0.209793   -1.190874   -0.337281
C     -1.488011    0.589924    0.284024
C     -3.747616    0.300320   -0.610730
C     -1.188229   -0.819384   -0.002151
C     -3.355663   -0.979975   -1.172039
O     -4.228813   -1.640555   -1.812569
O     -2.079654   -1.391531   -0.977175
H      4.171482    1.199819   -1.011352
H      3.721954   -0.268978   -0.083406
H      3.141753   -0.014352   -1.801255
H      2.335308    2.216017   -0.014450
H      1.332295    1.088620   -1.031420
H      2.559586    0.482530    1.655655
H      0.864857    1.035973    1.449417
H      2.212427   -1.553450    0.399328
H      0.933548   -1.425349    1.619046
H     -3.236213    1.985241    0.464247
H      0.195876   -2.300419   -0.575579
H      0.510716   -0.744316   -1.352744
H     -1.350268    0.733526    1.416017
H     -0.804370    1.332892   -0.179678
H     -4.776553    0.661340   -0.752575
H     -1.454112   -1.440872    0.930778
