80

C     -5.181270   -2.421649    2.213215
C     -3.414285   -3.425550    0.933716
C      5.840020   -0.473805   -1.190329
C      5.835203    1.837444   -0.447791
C      3.170646    2.221300    1.446317
C      0.609568    2.337112   -0.285904
C     -0.045004   -1.344084   -1.051782
C     -5.077816    3.013751   -1.654207
C      3.184725    1.215212   -1.361421
C      1.800445    0.732025   -1.625971
C     -4.962527   -1.945273   -0.148396
C     -1.131674    0.746881   -1.759685
C     -3.935201   -1.633149   -1.192138
C     -2.244335   -0.236944   -2.085260
C      0.958722   -0.409236    1.648210
C      3.638804    0.026290    2.198522
C     -3.430728   -0.919997    1.466505
C      5.414353   -1.035784    3.388300
C      4.907399   -0.307858    2.224074
C     -2.690105   -0.134886    0.414684
C     -0.456441   -0.823553    1.455197
C      3.756683    0.420410   -0.193644
C      1.600170    0.380327    0.818731
C     -1.242471    0.056098    0.586986
C      5.796880    0.038806    1.147273
C     -4.274079    0.713132   -1.338934
C     -4.131997   -2.150546    1.105901
C      5.238924    0.492101   -0.146133
C      3.027371    0.748328    1.091891
C      0.898704    0.866645   -0.400912
C     -0.370854    0.086204   -0.664868
C     -3.255440   -0.309833   -0.965578
N      5.824769   -1.637785    4.313652
O     -0.748330   -1.855598    2.062104
O      7.027047   -0.038850    1.290601
O     -5.401150    0.349903   -1.732070
O     -4.052476    2.083631   -1.278762
H     -5.589704   -1.461441    2.567740
H     -5.932490   -3.119516    1.799515
H     -4.605313   -2.847532    3.069514
H     -2.426419   -3.277916    0.496506
H     -4.036396   -4.166690    0.384325
H     -3.249350   -3.894489    1.951334
H      5.157219   -1.367323   -1.216081
H      5.854869   -0.049347   -2.194493
H      6.817532   -0.854375   -0.851281
H      5.327403    2.407230   -1.223923
H      6.009064    2.447546    0.489105
H      6.888917    1.671008   -0.828912
H      3.890460    2.368919    2.313974
H      3.649735    2.818723    0.646006
H      2.231170    2.642903    1.845427
H      0.007215    2.705442   -1.164852
H      1.559555    2.926734   -0.432359
H      0.187125    2.622246    0.666571
H     -0.870663   -1.989075   -0.711410
H      0.859340   -1.716022   -0.515565
H      0.197225   -1.419253   -2.120969
H     -5.290289    3.681823   -0.768130
H     -6.027828    2.474645   -1.853250
H     -4.733918    3.607731   -2.505431
H      3.802349    0.889549   -2.251355
H      3.296925    2.289587   -1.275396
H      1.317596    1.372313   -2.420597
H      1.857944   -0.276824   -2.024612
H     -5.414819   -2.919637   -0.398670
H     -5.751559   -1.206449   -0.026607
H     -1.665537    1.667477   -1.440568
H     -0.581224    0.850969   -2.712800
H     -3.171591   -2.427376   -1.179426
H     -4.358249   -1.626800   -2.199839
H     -2.694257    0.125949   -3.032766
H     -1.790783   -1.213497   -2.340901
H      1.445767   -0.836482    2.554771
H      3.072258   -0.241819    3.068856
H     -4.275127   -0.278046    1.923542
H     -2.814569   -1.035748    2.404825
H     -3.091681    0.935750    0.634599
H      3.476951   -0.646726   -0.416046
H     -1.019104    1.104622    1.007535
