75

C      3.386469   -0.229195    4.097004
C     -4.449410   -1.780971    3.220835
C      8.427046    2.922259   -1.676107
C    -10.394216    2.056949   -0.273602
C      7.634102    2.922041   -0.552746
C      8.909206    1.708658   -2.126844
C    -10.308450    0.865942   -0.956071
C     -9.270471    2.785100    0.072975
C      7.314175    1.769696    0.120856
C      8.598668    0.537701   -1.462932
C     -9.047102    0.394399   -1.300655
C     -8.017939    2.281138   -0.289346
C      3.571540    0.330167   -0.847468
C     -2.735532   -1.180179   -1.463817
C      4.849269   -0.014404   -0.468458
C     -4.011731   -0.605534   -1.396180
C      1.186331    0.851929   -0.318267
C      2.874931    0.217765    1.413441
C     -2.935220   -1.766810    0.807756
C     -0.817153   -2.389456   -0.359042
C      7.470586   -0.706140    0.372835
C     -6.579165    0.579851   -1.338547
C      0.965835   -0.921910   -2.057744
C      7.799101    0.569744   -0.336521
C     -7.907889    1.090803   -0.972906
C      2.573275    0.448459    0.090069
C     -2.167085   -1.773726   -0.364296
C      0.335293   -0.265112   -0.816110
C      5.150033   -0.244639    0.844551
C     -4.755495   -0.604973   -0.240262
C      4.154204   -0.127193    1.790223
C     -4.187954   -1.203325    0.874419
C      1.559111   -2.112105   -0.182585
C      0.276377   -1.442061    0.100322
O      2.202673   -2.845632    0.601668
O      0.088295   -1.118828    1.444274
O      4.406368   -0.351522    3.146546
O     -4.947139   -1.197459    2.035226
O      6.403405   -0.587724    1.266626
O     -6.017889   -0.029680   -0.194782
O      1.926710   -1.783126   -1.478034
H      3.734204   -0.471068    5.111117
H      3.036598    0.842582    4.130990
H      2.469187   -0.810068    3.845073
H     -5.177249   -1.606939    4.045654
H     -4.252312   -2.863011    3.115648
H     -3.493975   -1.256265    3.456573
H      8.680893    3.844492   -2.211377
H    -11.354660    2.436241   -0.000090
H      7.267073    3.884536   -0.218650
H      9.543982    1.667871   -3.014482
H    -11.218478    0.347672   -1.195570
H     -9.329660    3.711823    0.604474
H      6.681070    1.847983    1.004162
H      8.958087   -0.419939   -1.790407
H     -8.958839   -0.551435   -1.844469
H     -7.129725    2.845411   -0.021801
H      3.375656    0.515356   -1.910220
H     -2.187915   -1.163047   -2.402276
H      5.645274   -0.118943   -1.232296
H     -4.416256   -0.146330   -2.302192
H      1.254028    1.588765   -1.176497
H      0.716788    1.422156    0.503202
H      2.098305    0.331791    2.179747
H     -2.508612   -2.228188    1.680973
H     -0.588966   -2.804164   -1.332988
H     -0.765293   -3.246492    0.359622
H      7.224093   -1.506767   -0.358823
H      8.389168   -0.979617    0.971077
H     -6.680546   -0.225979   -2.120062
H     -5.914779    1.352598   -1.772876
H      1.355006   -0.197612   -2.771039
H      0.148038   -1.458125   -2.569329
H     -0.688838    0.099137   -1.067093
H      0.575491   -1.735317    2.047858
