54

C      5.540212   -3.870853    1.174505
C     -1.747183    0.984914    1.473999
C     -1.919540   -1.342131    1.275112
C      2.333728   -1.124878   -0.244580
C      2.408242   -2.811893   -1.880920
C     -2.302764    4.899969   -1.314272
C     -3.874422    3.365487   -0.401064
C     -1.331383    1.485249   -2.348916
C     -2.079065   -0.099904    0.703227
C      1.726161   -1.763975   -1.302027
C     -3.437307    4.676541   -0.565983
C     -2.052916    2.586683   -1.717680
C     -1.573538    3.894629   -1.911293
C     -1.269966    0.833081    2.778121
C     -1.447372   -1.507861    2.566629
C      3.573319   -1.495874    0.237661
C      3.661492   -3.203853   -1.410674
C     -3.182557    2.331935   -0.975111
C     -1.548821    0.169975   -1.705436
C     -1.115686   -0.420834    3.336816
C     -2.595569   -0.013537   -0.688994
C      4.236446   -2.547366   -0.358064
C      0.422934   -1.305657   -1.755746
O     -4.141266    5.720710    0.017789
O     -0.443693    4.177424   -2.651129
O     -0.929536    1.916847    3.573364
O     -1.296018   -2.791642    3.120971
O      4.176163   -0.844504    1.304511
O      4.353233   -4.266109   -1.998204
O     -0.636428   -0.576056    4.646832
O     -0.111155   -1.933904   -2.708404
O      5.490611   -2.907153    0.144999
O     -3.610110    0.987793   -0.817180
O     -0.256345   -0.249835   -1.225784
H      4.603031   -3.946478    1.754054
H      5.727620   -4.860864    0.671538
H      6.418764   -3.666154    1.827983
H     -1.844656    1.969508    1.094186
H     -2.169991   -2.223497    0.699296
H      1.827788   -0.298687    0.234430
H      1.947022   -3.319230   -2.706796
H     -1.990570    5.948259   -1.421298
H     -4.779437    3.158431    0.192039
H     -0.225042    1.720829   -2.428561
H     -1.654435    1.410977   -3.433940
H     -1.830737   -0.541565   -2.563877
H     -3.167561   -0.968178   -0.931711
H     -3.847449    5.977403    0.969649
H      0.155755    3.552771   -3.122233
H     -1.043252    2.840282    3.162167
H     -1.545520   -3.582539    2.539347
H      3.701768   -0.065541    1.759371
H      5.245393   -4.539045   -1.660799
H     -0.548393   -1.520102    4.992083
