53

C      5.416353    0.490343    2.249300
C     -5.318969   -1.581995    1.343603
C      2.918530   -2.438414   -1.013682
C     -2.889281    2.626589    0.155095
C      4.235270   -2.804175   -1.118693
C     -4.218249    2.985246    0.135466
C      1.091716   -1.041666   -0.018098
C      3.498674   -0.831397    0.630292
C     -3.460372    0.421063    0.740499
C     -1.057995    0.928673    0.484908
C      1.618076    1.292936   -0.746362
C     -1.504216   -0.737160   -1.326969
C      2.545804   -1.448627   -0.136759
C     -2.486462    1.340020    0.457470
C      0.779916    0.055684   -0.979589
C      5.187329   -2.169160   -0.334795
C     -5.162181    2.009661    0.431148
C      4.824636   -1.176469    0.546743
C     -4.803839    0.733713    0.733210
C     -0.660484    0.440651   -0.905069
O      1.235941    2.236474   -1.699284
O     -1.101419   -1.079575   -2.628464
O      6.505071   -2.550563   -0.454537
O     -6.507781    2.338866    0.419800
O     -0.956767    1.454669   -1.850754
O      5.785259   -0.528855    1.344180
O     -5.745512   -0.265620    1.034764
H      4.883981    0.028232    3.101739
H      6.297291    1.006902    2.657661
H      4.710615    1.219223    1.783679
H     -4.901742   -2.030601    0.435663
H     -4.514308   -1.580888    2.112460
H     -6.164265   -2.162374    1.764867
H      2.134639   -2.919859   -1.619547
H     -2.139546    3.360289   -0.069400
H      4.514249   -3.596970   -1.824684
H     -4.567951    3.982169   -0.096872
H      0.837268   -0.831185    1.024576
H      0.521409   -1.943572   -0.317731
H      3.179685   -0.044457    1.323513
H     -3.145051   -0.584770    0.976782
H     -0.974615    0.109390    1.212718
H     -0.422957    1.751982    0.811484
H      1.546047    1.662884    0.287904
H      2.697200    1.077610   -0.949040
H     -2.581820   -0.409647   -1.445850
H     -1.428739   -1.614161   -0.688367
H      0.991306   -0.292175   -1.997821
H      1.612704    1.924346   -2.574550
H     -0.915767   -0.253259   -3.147302
H      6.807643   -3.267596   -1.083658
H     -6.851840    3.255957    0.207334
H     -1.894483    1.451619   -2.104908
