54

C      6.550427   -1.776827   -1.690664
C     -1.409247   -1.793039   -0.738364
C     -3.010420   -2.171974    0.947089
C      2.687338    0.349313   -0.473774
C      3.312522   -0.959605    1.375069
C     -2.904789    5.002449   -0.462453
C     -3.210040    3.019240   -1.727599
C     -1.545261    2.179934    1.573863
C     -2.271385   -1.260704    0.218955
C      2.353142   -0.225278    0.713655
C     -3.352882    4.385846   -1.611112
C     -2.173339    2.908841    0.455384
C     -2.318847    4.267021    0.563559
C     -1.295761   -3.148067   -0.951281
C     -2.920526   -3.533150    0.758966
C      3.972423    0.178573   -0.975757
C      4.587166   -1.135233    0.887880
C     -2.619640    2.291269   -0.689763
C     -1.276990    0.738212    1.310341
C     -2.053811   -4.014201   -0.199775
C     -2.377469    0.186947    0.430230
C      4.935755   -0.559031   -0.311187
C      1.039006   -0.108082    1.325058
O     -3.925225    5.186188   -2.587989
O     -1.886607    4.968306    1.704465
O     -0.404985   -3.618367   -1.935009
O     -3.688541   -4.432632    1.518861
O      4.302918    0.774286   -2.196964
O      5.496710   -1.884416    1.605436
O     -1.939466   -5.364341   -0.413279
O      0.829108   -0.674074    2.421005
O      6.216288   -0.714848   -0.835837
O     -2.462453    0.914621   -0.778737
O     -0.003045    0.603137    0.754262
H      6.765619   -1.445511   -2.727061
H      5.671166   -2.446325   -1.756758
H      7.372663   -2.361771   -1.266908
H     -0.791152   -1.139616   -1.354699
H     -3.709597   -1.822583    1.717884
H      1.949713    0.929109   -1.008270
H      3.082434   -1.440449    2.338155
H     -2.997821    6.087307   -0.326455
H     -3.552498    2.530448   -2.610904
H     -2.176867    2.337323    2.496829
H     -0.590156    2.734134    1.810802
H     -1.374753    0.196317    2.295899
H     -3.335714    0.381122    0.979845
H     -4.914402    5.337113   -2.539457
H     -2.001542    5.970061    1.767983
H     -0.323870   -4.609851   -2.088743
H     -4.325305   -4.104127    2.221553
H      5.238787    0.637200   -2.540769
H      5.260841   -2.315949    2.487899
H     -2.479619   -6.034264    0.118641
