40

C     -3.452726    0.467962    0.585363
C     -2.899281   -0.701971   -0.154337
C     -0.946982    0.814713   -1.361415
C     -0.674028   -0.507186   -2.091285
C      2.608891   -1.435890   -0.274981
C      1.690938    1.005417    0.511928
C      0.325532   -2.236729   -0.760858
C      5.347117    0.854049    0.660531
C      1.260742   -1.175233   -0.299933
C      0.787707    0.055952    0.096133
C     -2.525077    1.071920    1.593950
C      3.525216   -0.470156    0.147844
C      3.054967    0.763357    0.544856
C     -1.444839   -0.951900    0.065177
C     -1.128608    1.304453    1.108748
C     -0.662978    0.349988    0.073935
N     -0.913479   -1.561127   -1.160482
O     -2.549808    0.254253    2.728509
O     -0.293956    1.140437    2.237719
O      4.902103   -0.425226    0.283855
O      4.137770    1.541115    0.915376
H     -3.897485    1.255996   -0.092775
H     -4.352397    0.108853    1.169148
H     -3.103707   -0.608771   -1.261239
H     -3.433572   -1.658715    0.123621
H     -0.219087    1.568091   -1.697302
H     -1.989331    1.076824   -1.527912
H      0.384165   -0.482379   -2.418966
H     -1.284574   -0.574556   -3.013137
H      3.022947   -2.379102   -0.573857
H      1.356964    1.981185    0.827736
H      0.681882   -2.781678   -1.634751
H      0.087541   -2.969678    0.023784
H      5.944736    0.874041    1.577039
H      5.905547    1.376252   -0.142805
H     -2.975047    2.043106    1.913652
H     -1.213128   -1.585579    0.922881
H     -0.985579    2.379741    0.800239
H     -3.477765   -0.078508    2.808863
H     -0.601334    0.296677    2.676983
