28

C     -3.510310   -0.706364   -1.044054
C     -2.594158   -1.645699   -0.633145
C     -3.326172    0.600046   -0.645685
C     -1.510016   -1.283265    0.164414
C     -2.235153    0.956327    0.155146
C      2.731361    0.331704   -0.617798
C      3.072929   -0.978809    0.005639
C      0.839134    1.880419    0.028398
C     -1.316010    0.016846    0.568015
C      1.251793    0.479221   -0.370814
C      2.035956   -1.128619    1.067663
C     -0.174923    0.422476    1.412551
N      1.008490   -0.191077    0.904241
O      2.146341   -2.022677    1.973366
O      0.069791    1.777394    1.164122
H     -4.369473   -0.965698   -1.670224
H     -2.748844   -2.672521   -0.952888
H     -4.056344    1.326005   -0.977964
H     -0.814828   -2.047844    0.465255
H     -2.125728    1.987398    0.445680
H      3.240051    1.196228   -0.160859
H      2.893010    0.294930   -1.703604
H      4.083677   -0.854890    0.494185
H      3.078073   -1.829184   -0.689435
H      0.255712    2.289935   -0.841339
H      1.764927    2.462427    0.156303
H      0.659655    0.067136   -1.185281
H     -0.348939    0.238155    2.488110
