67

C      0.643904    3.195277   -0.509637
C     -0.573466    2.288835   -2.414359
C      6.351748   -3.952511    0.379677
C      3.427052    2.947877    1.775993
C     -6.794118   -2.515318   -1.586444
C     -3.126709    2.797661    2.949873
C      5.535009   -4.012689   -0.728905
C      6.028464   -3.067547    1.384852
C      3.917776    2.590517    0.542014
C      2.690660    2.052607    2.530993
C     -5.585633   -3.116416   -1.794774
C     -6.831626   -1.347615   -0.836790
C     -3.172512    3.007679    1.597616
C     -3.003048    1.516098    3.410489
C      4.414172   -3.201874   -0.830711
C      4.907235   -2.262988    1.272625
C      3.694775    1.338223    0.018937
C      2.484912    0.805245    1.977963
C     -4.453552   -2.564784   -1.268942
C     -5.666231   -0.792485   -0.303715
C     -3.095124    1.942282    0.710024
C     -2.927311    0.471649    2.534140
C      1.779408   -1.240314   -1.507962
C     -1.571175   -0.748257   -1.187825
C      4.079900   -2.310973    0.170283
C      2.968116    0.436597    0.750070
C     -4.450153   -1.406267   -0.519112
C     -2.970122    0.639900    1.145228
C      0.788017   -0.123293   -1.659560
C     -0.294022   -0.182415   -0.602848
C      0.220557    1.920253   -1.183119
O      1.328294    1.134673   -1.573139
O     -0.500077    1.156114   -0.290860
P      2.642178   -1.219664    0.121089
P     -2.861395   -0.810153    0.103642
H      0.797911    3.013064    0.554970
H     -0.126993    3.981009   -0.648255
H      1.610410    3.518658   -0.948380
H     -1.651104    2.406507   -2.221849
H     -0.215005    3.288146   -2.769354
H     -0.391420    1.590910   -3.245717
H      7.236583   -4.589814    0.464471
H      3.609684    3.950771    2.187006
H     -7.676840   -2.966599   -2.010158
H     -3.183371    3.596846    3.684938
H      5.790158   -4.712899   -1.525027
H      6.673760   -3.022738    2.256400
H      4.496671    3.339662   -0.016787
H      2.303224    2.332541    3.503497
H     -5.548040   -4.024860   -2.376762
H     -7.799110   -0.866671   -0.670167
H     -3.270847    4.024489    1.221733
H     -2.965144    1.334543    4.494597
H      3.789190   -3.259427   -1.697329
H      4.683078   -1.583570    2.074118
H      4.105548    1.104435   -0.964026
H      1.897083    0.113666    2.598329
H     -3.513297   -3.099814   -1.474611
H     -5.675957    0.106304    0.276156
H     -3.129913    2.092377   -0.358007
H     -2.829458   -0.529719    2.957802
H      1.230752   -2.199091   -1.588641
H      2.549255   -1.238359   -2.304318
H     -1.876761   -0.242608   -2.109537
H     -1.319707   -1.808580   -1.483244
H      0.346256   -0.224964   -2.681667
H      0.027496   -0.790138    0.243010
