49

C      6.099720   -1.056127    1.577325
C     -6.011801    1.669889   -0.652291
C      3.149099    0.732245   -2.020810
C     -3.070009   -1.504861    2.015586
C      4.409646    1.232674   -2.258942
C     -4.329795   -2.050103    2.000448
C      1.539937   -0.646793   -0.677532
C      3.960175   -0.401324   -0.130389
C     -3.823583    0.355127    0.712670
C     -1.457727    0.242092    1.414045
C      0.519035    1.623455   -0.366790
C      2.893565   -0.097350   -0.950196
C     -2.828257   -0.313055    1.375051
C      0.731031    0.253631    0.217670
C      5.483586    0.930498   -1.438956
C     -5.327106   -1.366932    1.328664
C      5.217292    0.101258   -0.372807
C     -5.099238   -0.169258    0.680931
C     -1.218894    0.283206   -1.046401
C     -0.699023   -0.297146    0.217992
O      6.759112    1.439899   -1.684164
O     -6.593089   -1.932918    1.324138
O     -2.167894   -0.140659   -1.747929
O     -0.723206   -1.672379    0.235702
O      6.309731   -0.204028    0.458366
O     -6.149772    0.443957    0.036275
O     -0.471671    1.411137   -1.354228
H      5.219007   -0.778756    2.169736
H      7.010380   -1.026018    2.216076
H      6.032538   -2.087242    1.168822
H     -7.020751    1.921587   -1.064143
H     -5.648076    2.443338    0.062078
H     -5.290132    1.494964   -1.480986
H      2.310508    0.978772   -2.675940
H     -2.261109   -1.997789    2.524249
H      4.615634    1.886496   -3.101018
H     -4.551491   -3.005348    2.506355
H      1.683984   -1.602862   -0.134577
H      1.012929   -0.881986   -1.610130
H      3.803621   -1.049801    0.722398
H     -3.656706    1.290196    0.204007
H     -0.906130   -0.032841    2.317695
H     -1.545042    1.350282    1.364001
H      0.087945    2.262191    0.420252
H      1.426288    2.098485   -0.745712
H      1.087060    0.250060    1.248347
H      7.488202    1.170307   -1.036991
H     -7.328553   -1.461068    0.847648
H     -0.670970   -2.089100   -0.653796
