28

C     -3.450739   -1.166257    0.406774
C     -3.340896    0.184289    0.655338
C     -2.470764   -1.799912   -0.325989
C     -2.240872    0.897156    0.164103
C     -1.405198   -1.086704   -0.796470
C      2.639648    0.041987    0.871266
C      3.254136   -0.555631   -0.373218
C      0.571688    1.494533    0.957631
C     -1.264658    0.263446   -0.566242
C      1.163493    0.169335    0.592276
C      2.185556   -0.440519   -1.381174
C     -0.125700    1.038387   -1.061132
N      1.072509    0.261263   -0.877961
O      2.237241   -0.902409   -2.550401
O      0.083179    2.101822   -0.189302
H     -4.316574   -1.682402    0.803876
H     -4.106066    0.701497    1.232706
H     -2.558322   -2.867823   -0.522182
H     -2.237548    1.961632    0.405541
H     -0.654920   -1.649572   -1.375565
H      3.034756    1.029558    1.129338
H      2.836223   -0.664102    1.706309
H      3.607911   -1.591563   -0.214946
H      4.088989    0.133015   -0.674407
H     -0.305604    1.294835    1.626893
H      1.300930    2.156640    1.477794
H      0.655833   -0.704236    0.990367
H     -0.254232    1.381736   -2.111222
