110

C    -15.191932   -0.925487   -1.590386
C     15.877838    0.636989   -1.043544
C    -14.501347    0.323304   -2.104000
C    -13.539155    0.817068   -1.040655
C    -12.505718   -0.253957   -0.739207
C    -11.530317    0.237448    0.331650
C    -10.533470   -0.866611    0.597862
C     -9.517711   -0.515600    1.635952
C     -8.664060    0.679944    1.295214
C     -7.868801    0.483632    0.023376
C      8.163807    0.219663   -1.196530
C      9.331574    0.590939   -2.010085
C      8.145939    0.665841    0.202232
C     -7.033671    1.676360   -0.258180
C     10.710652    0.210292   -1.654409
C      6.795573    0.313516    0.882535
C     -6.187237    1.601577   -1.478436
C     11.265351    0.854350   -0.448636
C      6.552556   -1.175544    0.865605
C     -5.185591    0.512292   -1.519742
C      4.845345   -2.856883    1.621522
C      2.039652    0.720748    1.912086
C      1.090249    0.888518    0.765124
C      3.338465   -2.832155    1.467841
C     -2.385197   -0.577806   -1.788734
C     -0.957709   -0.416735   -1.230230
C     13.706940    1.217144   -0.139079
C     14.932433    0.434756    0.145472
C     12.678240    0.411296   -0.183204
C      5.226854   -1.397859    1.561774
C     -4.164075    0.576510   -0.409790
C      2.388980   -0.687307    2.251974
C     -0.181462    0.188267    1.098611
C      3.046394   -1.412360    1.116720
C     -3.171175   -0.588831   -0.522600
C     -1.256755    0.262503    0.064190
C     13.120937   -0.954248    0.054545
O     -4.776457    0.358105    0.846848
O      3.199340   -0.655242    3.401863
O     -0.702027    0.728360    2.284625
O     12.437322   -2.006734    0.091874
O     14.493322   -0.879913    0.240287
O      4.243137   -0.776068    0.794433
O     -2.325170   -0.500835    0.550705
H    -14.493201   -1.768618   -1.740340
H    -16.144627   -1.058932   -2.109262
H    -15.304419   -0.816259   -0.495915
H     16.877025    0.279855   -0.739434
H     15.949514    1.734783   -1.258225
H     15.465181    0.156983   -1.934265
H    -13.967450    0.141166   -3.043885
H    -15.271990    1.094211   -2.263314
H    -14.130902    0.952545   -0.108996
H    -13.091955    1.755145   -1.406857
H    -13.020361   -1.125428   -0.319154
H    -11.987098   -0.559387   -1.651027
H    -12.042203    0.472169    1.264479
H    -10.959503    1.096783   -0.088589
H    -11.050666   -1.816138    0.903587
H    -10.060216   -1.107647   -0.367472
H     -9.982595   -0.322249    2.620980
H     -8.805780   -1.388913    1.688277
H     -8.015638    0.879368    2.173739
H     -9.351925    1.545981    1.172716
H     -8.624261    0.265620   -0.761031
H     -7.263826   -0.435790    0.132285
H      7.243978    0.605417   -1.749175
H      8.100671   -0.923604   -1.239608
H      9.137136    0.322953   -3.124057
H      9.269148    1.752454   -2.099931
H      8.274263    1.737004    0.311253
H      8.867922    0.056650    0.813023
H     -7.737747    2.548187   -0.412189
H     -6.454848    1.946476    0.643939
H     10.725856   -0.918094   -1.587381
H     11.371695    0.405548   -2.546425
H      5.985253    0.856792    0.389630
H      6.900938    0.646433    1.925135
H     -5.631385    2.575134   -1.553234
H     -6.809908    1.540846   -2.393642
H     10.767631    0.791648    0.493738
H     11.331062    1.968543   -0.687621
H      6.511669   -1.579546   -0.164416
H      7.345943   -1.713573    1.405842
H     -4.607022    0.664448   -2.478806
H     -5.621465   -0.504465   -1.627672
H      5.084139   -3.271415    2.608024
H      5.347995   -3.473318    0.864629
H      3.000937    1.230618    1.627027
H      1.663592    1.256367    2.806839
H      1.570554    0.513876   -0.159089
H      0.954715    1.988392    0.621499
H      3.072136   -3.510047    0.649703
H      2.839858   -3.164629    2.420617
H     -2.423148   -1.590975   -2.240194
H     -2.630665    0.221943   -2.481087
H     -0.431665    0.233944   -1.972751
H     -0.457289   -1.390940   -1.128729
H     13.714873    2.316372   -0.284836
H     15.412248    0.805774    1.081912
H      5.335702   -0.984919    2.577232
H     -3.654873    1.540228   -0.454141
H      1.509901   -1.301914    2.552986
H      0.054372   -0.896095    1.230384
H      2.338349   -1.411059    0.261959
H     -3.762714   -1.542503   -0.394647
H     -1.558455    1.310833   -0.138076
H     -4.141619    0.028901    1.507296
H      3.419620    0.271786    3.669035
H     -1.404318    1.391778    2.040236
