51

C      0.356706    4.220608    0.173752
C      2.062584    2.271259   -0.369272
C     -3.009945   -1.405655    1.562529
C     -3.863978   -0.406277   -0.475933
C     -0.720106   -2.235516   -0.764420
C     -0.122437   -1.796335    0.582977
C     -1.167864    2.419650   -0.437396
C      4.175776   -1.910909   -0.833199
C     -2.120106    1.433514    0.217415
C      4.019022   -1.889986    0.531096
C     -2.196018   -2.132001   -0.659882
C      2.331026   -0.440277   -1.130004
C     -0.067329    2.808427    0.494995
C      1.027509    1.825713    0.284844
C      3.341255   -1.193461   -1.665992
C     -0.291708   -0.285282    0.554037
C      2.127380   -0.381695    0.226966
C     -1.529305    0.081019    0.326615
C      2.972999   -1.106217    1.033338
C      0.982801    0.420513    0.802653
C     -2.625305   -0.955289    0.157986
O      3.545194   -1.248925   -3.065885
O      2.859641   -1.121546    2.407733
H      0.411348    4.442884   -0.897144
H     -0.415608    4.917709    0.632141
H      1.297871    4.527776    0.683657
H      2.048498    3.319594   -0.712433
H      2.977386    1.726713   -0.613131
H     -4.106566   -1.198276    1.740921
H     -2.384174   -0.928531    2.314982
H     -2.972359   -2.534359    1.582480
H     -3.755039   -0.082078   -1.525782
H     -4.540131   -1.324765   -0.574617
H     -4.469818    0.259309    0.164000
H     -0.352184   -1.511026   -1.515956
H     -0.366326   -3.247746   -1.031662
H     -0.611488   -2.258214    1.435346
H      0.904435   -2.124142    0.548110
H     -1.784622    3.302943   -0.737669
H     -0.750968    1.960047   -1.332007
H      4.982603   -2.511976   -1.264894
H     -2.979199    1.393655   -0.468539
H     -2.434358    1.801298    1.219433
H      4.677131   -2.456860    1.198588
H     -2.608217   -2.090510   -1.705736
H     -2.617232   -3.069822   -0.227494
H      1.696876    0.106486   -1.814102
H     -0.380442    2.751939    1.570455
H      1.194022    0.543372    1.889560
H      3.019028   -2.008810   -3.520528
H      2.231742   -0.677944    3.007067
