53

C      2.483987    2.717518   -1.673833
C     -3.151877   -1.369348    2.126447
C     -2.996768    2.653851    0.274034
C      6.064691    0.140670    0.936273
C      0.259219   -2.573241    0.425969
C      1.395941   -3.005803    1.046335
C      1.437250    0.645582   -0.914913
C      3.681075    0.958942   -0.317387
C     -1.512391    0.311492    1.240701
C     -2.261169   -0.605894   -2.808462
C      2.566221    1.424499   -0.948366
C     -2.813782    0.118942    1.957339
C     -3.747509    1.329030    0.055474
C      0.269094   -1.366366   -0.225306
C      1.404342   -0.593065   -0.259523
C     -1.736193   -0.044865   -0.179089
C      2.581877   -2.246002    1.036535
C     -3.150038    0.205075   -2.114845
C     -1.134902   -1.131832   -2.220205
C      3.717563   -0.265036    0.353147
C     -2.864263    0.476581   -0.781763
C     -0.897244   -0.837730   -0.911886
C      2.561030   -1.019518    0.364394
N     -3.920674    0.733021    1.342786
O      3.665279   -2.752905    1.678572
O     -4.262925    0.713619   -2.728543
O     -0.253789   -1.957465   -2.971097
O      4.903215   -0.635674    0.956622
H      3.422705    3.015516   -2.153473
H      2.152514    3.475610   -0.926636
H      1.672190    2.679007   -2.443721
H     -3.899994   -1.456241    2.922706
H     -2.252881   -1.972981    2.354906
H     -3.548456   -1.748054    1.144423
H     -2.700798    2.789977    1.332896
H     -2.071500    2.703323   -0.335964
H     -3.681721    3.506058    0.028946
H      5.991704    1.028281    1.621116
H      6.261401    0.465045   -0.097405
H      6.916584   -0.498374    1.280081
H     -0.666209   -3.194699    0.448165
H      1.381563   -3.967034    1.563147
H      0.498461    0.962589   -1.405181
H      4.586914    1.574492   -0.336586
H     -0.849434   -0.529173    1.629460
H     -0.952515    1.198147    1.434845
H     -2.429132   -0.856744   -3.861372
H     -2.741286    0.517162    3.002506
H     -4.733650    1.546608   -0.424564
H     -4.840517    0.296459    1.444887
H      4.575539   -2.529384    1.866500
H     -4.943917    1.299707   -2.319043
H      0.565171   -2.329376   -2.510048
