53

C     -4.720467   -0.224873    0.285782
C      0.410439   -2.688531    0.795193
C     -2.380131   -1.387244   -1.246685
C      0.738414   -0.587794   -1.265592
C     -2.166503    2.411423   -0.828936
C     -3.397349    1.667429   -0.427139
C     -1.148416    1.319744   -1.218402
C      5.454040    0.855718    0.264889
C      4.687739    1.957306   -0.052300
C     -1.030779   -1.126963    2.023278
C     -2.284477   -1.258870    1.240282
C      3.417204   -0.242174    0.865271
C      1.181398    0.906690    0.618794
C     -3.432526    0.407975   -0.095502
C      0.252137   -1.264120    1.168097
C      2.614512    0.820951    0.566568
C      4.803392   -0.254158    0.728142
C      3.326407    1.951880    0.088017
C     -1.067394    0.422960   -0.022435
C     -2.210785   -0.495793   -0.068305
C      0.332896   -0.243276    0.114495
O      5.534415   -1.385723    1.056212
O      2.609375    3.090320   -0.245785
H     -5.433483   -0.267586   -0.568560
H     -5.222039    0.395152    1.053465
H     -4.630974   -1.254503    0.649703
H     -0.147266   -3.055989   -0.055516
H      0.040303   -3.295321    1.678084
H      1.485019   -3.021554    0.700157
H     -3.064381   -2.221413   -0.899408
H     -1.505866   -1.894957   -1.630715
H     -2.993960   -0.899336   -2.064946
H      1.755229   -0.176103   -1.547959
H      0.869284   -1.684648   -1.434647
H      0.070302   -0.154492   -2.028697
H     -1.733230    2.882095    0.074452
H     -2.311207    3.109101   -1.658451
H     -4.310672    2.241914   -0.418692
H     -1.694466    0.780926   -2.052876
H     -0.225933    1.778292   -1.549084
H      6.530138    0.865886    0.155012
H      5.237782    2.830959   -0.416848
H     -0.970188   -1.941122    2.769684
H     -0.933483   -0.137928    2.535038
H     -3.101459   -0.854278    1.911932
H     -2.548262   -2.314361    1.070718
H      2.987901   -1.152289    1.211417
H      0.843479    1.875960    0.134884
H      0.901995    1.111018    1.713327
H      1.015105   -1.094926    2.008140
H     -1.169639    1.036846    0.891727
H      5.695371   -2.073746    0.310294
H      3.041063    3.933529   -0.582667
