93

C     -1.010288    5.341497    1.634297
C      2.756755   -1.654051   -2.816834
C      1.963467   -4.478080   -0.564571
C     -2.975521    2.520326    1.569696
C     -3.065407    1.544532   -0.654144
C      0.146274    4.350936    1.596600
C      0.477943    4.087558    0.167633
C      7.102592    0.735237   -1.405400
C      8.014063   -0.082742    0.609936
C     -3.953909   -3.536056   -2.769590
C     -3.568893   -1.268872   -3.311210
C     -5.119346   -1.183273    4.877518
C     -5.922716   -1.163160    2.666910
C      8.287709    1.382881   -1.665173
C      9.206670    0.552365    0.376018
C     -4.664699   -3.735901   -3.956410
C     -4.276978   -1.437004   -4.510365
C     -6.348288   -1.645213    5.322230
C     -7.159578   -1.624101    3.083543
C      2.878579    3.574298   -0.305117
C      2.940109   -2.357908   -1.489666
C      1.688242   -3.059578   -1.042813
C      6.943538   -0.012348   -0.258698
C     -3.413308   -2.323962   -2.448572
C     -4.889806   -0.936170    3.545320
C      1.557449    3.144054   -0.086057
C      9.350821    1.294436   -0.771669
C     -4.820258   -2.661437   -4.829564
C     -7.376376   -1.867469    4.419230
C      3.909769    2.684255   -0.489911
C      1.367464    1.786910   -0.071092
C      2.293495   -0.391399   -0.255852
C     -0.068238   -0.135198    0.137633
C      3.396728   -1.380310   -0.442248
C      2.475875    0.950889   -0.268051
C      1.025842   -0.945624   -0.053920
C      0.114629    1.255591    0.126843
C     -1.399002   -0.732986    0.352965
C     -2.125998    0.259374    1.273522
C      5.712869   -0.715613    0.060514
C     -2.685118   -2.148682   -1.216818
C     -3.619586   -0.453886    3.043614
C     -2.233338    1.605463    0.613585
Br    11.012188    2.183773   -1.105911
Br    -5.790919   -2.944706   -6.444066
Br    -9.081720   -2.506700    5.030482
O      5.075328    3.161864   -0.681569
O      5.675633   -1.372179    1.129417
O     -2.504565   -3.075608   -0.379980
O     -2.691739   -0.250286    3.865639
O      0.964549   -2.328800   -0.062334
O      3.687388    1.399138   -0.467029
O      4.577261   -0.721913   -0.717062
O     -2.113770   -0.915377   -0.850416
O     -3.365225   -0.202977    1.705210
O     -0.950392    2.102687    0.309887
H     -0.647320    6.385975    1.607194
H     -1.607494    5.171081    0.715325
H     -1.669340    5.155313    2.508135
H      2.878074   -2.425794   -3.631178
H      1.788857   -1.145052   -2.896956
H      3.616494   -0.943753   -2.928992
H      1.039574   -5.076200   -0.748643
H      2.249162   -4.456530    0.508184
H      2.732291   -4.899763   -1.223185
H     -3.234955    3.432584    0.999798
H     -2.317805    2.711418    2.420689
H     -3.934307    2.042623    1.842621
H     -2.359379    1.423231   -1.499074
H     -3.826673    0.744005   -0.625671
H     -3.547980    2.529105   -0.780622
H      1.020932    4.959969    2.016425
H     -0.041414    3.539212    2.269462
H      0.927320    5.093972   -0.163201
H     -0.375802    4.077671   -0.538912
H      6.280263    0.801020   -2.092479
H      7.938300   -0.666553    1.539331
H     -3.848584   -4.393581   -2.107011
H     -3.139905   -0.306041   -3.056386
H     -4.353277   -1.026811    5.620852
H     -5.801874   -0.985923    1.599991
H      8.426496    1.966744   -2.550414
H     10.000069    0.459395    1.088515
H     -5.098653   -4.688009   -4.225396
H     -4.401955   -0.609419   -5.192279
H     -6.513415   -1.837680    6.391902
H     -7.954929   -1.790995    2.346997
H      3.034211    4.640516   -0.318842
H      3.704950   -3.157553   -1.662552
H      1.011707   -3.139610   -1.918852
H      3.421966   -1.958125    0.529442
H     -1.389061   -1.684269    0.889750
H     -1.414793    0.389333    2.139901
