93

C      0.407332   -4.733084   -0.134817
C      4.171652    3.106795   -1.482339
C      1.050397    3.732070   -1.122541
C     -3.444327   -2.938894   -0.731633
C     -2.773958   -0.927028   -2.055410
C      0.265331   -5.239158   -1.529657
C      0.001647   -4.241604   -2.620539
C      7.553168   -0.314034    1.096091
C      5.640784    0.399120    2.268452
C     -3.292856    3.284369   -1.855212
C     -3.037149    4.709593   -0.011070
C     -5.607762    0.107992    2.660759
C     -4.941639   -1.137966    4.551572
C      8.255224   -0.435620    2.273302
C      6.315490    0.288799    3.473765
C     -3.952444    4.314433   -2.531737
C     -3.683858    5.743956   -0.654255
C     -6.733200    0.536723    3.336368
C     -6.065683   -0.721572    5.253511
C      2.250798   -3.584125   -3.348066
C      2.945821    2.257726   -1.533332
C      1.934845    2.676678   -0.493795
C      6.244464    0.101236    1.065357
C     -2.822973    3.472960   -0.573420
C     -4.697720   -0.734565    3.259307
C      1.067313   -3.239910   -2.653513
C      7.634438   -0.131466    3.487434
C     -4.141995    5.533505   -1.926778
C     -6.947709    0.117239    4.622432
C      3.332803   -2.747786   -3.332149
C      1.018704   -2.055074   -1.967849
C      2.171986   -0.050421   -1.332444
C     -0.093535   -0.400223   -0.599371
C      3.366204    0.807998   -1.345263
C      2.166355   -1.253854   -1.999209
C      1.035898    0.376247   -0.629503
C     -0.094541   -1.612855   -1.270882
C     -1.267114    0.083865    0.143786
C     -2.221544   -1.073017    0.400118
C      5.484792    0.233561   -0.195482
C     -2.130505    2.380082    0.118655
C     -3.539351   -1.142395    2.492820
C     -2.465730   -1.780579   -0.875593
Br     8.551360   -0.282042    5.128830
Br    -5.051954    6.947633   -2.867703
Br    -8.507388    0.698695    5.591639
O      4.385181   -3.080755   -3.964182
O      6.021968   -0.032809   -1.300255
O     -1.692000    2.520230    1.296933
O     -2.700170   -1.901256    2.999476
O      1.171927    1.604700   -0.001287
O      3.238689   -1.632072   -2.662489
O      4.169786    0.650686   -0.202929
O     -1.922233    1.162504   -0.465260
O     -3.265560   -0.761941    1.220168
O     -1.223657   -2.379957   -1.244430
H     -0.554591   -4.452649    0.338819
H      1.100116   -3.872124   -0.036719
H      0.852436   -5.519160    0.540527
H      4.301841    3.638479   -0.523054
H      4.152014    3.912538   -2.273531
H      5.097573    2.526024   -1.674274
H      0.585091    3.399396   -2.066203
H      1.743570    4.579839   -1.398373
H      0.301294    4.122431   -0.387189
H     -3.597084   -3.467925   -1.695301
H     -3.062514   -3.703462   -0.025124
H     -4.465722   -2.575781   -0.437451
H     -1.866432   -0.446873   -2.504241
H     -3.148443   -1.619423   -2.866884
H     -3.518321   -0.158086   -1.934407
H     -0.564026   -6.015032   -1.489068
H      1.159621   -5.892675   -1.802823
H     -1.031598   -3.900827   -2.549651
H      0.080849   -4.894928   -3.579044
H      8.043661   -0.551468    0.166848
H      4.612135    0.726657    2.258863
H     -3.177988    2.355171   -2.385428
H     -2.675685    4.874816    0.993157
H     -5.489253    0.470369    1.646142
H     -4.243053   -1.793120    5.030139
H      9.284675   -0.762518    2.286901
H      5.812843    0.530995    4.399042
H     -4.310549    4.140186   -3.534616
H     -3.834449    6.719419   -0.167865
H     -7.458562    1.202182    2.871693
H     -6.254089   -1.042266    6.273687
H      2.276760   -4.535485   -3.897276
H      2.484457    2.343476   -2.535019
H      2.414838    3.156557    0.388459
H      3.975867    0.536891   -2.230441
H     -0.978886    0.451506    1.175966
H     -1.584202   -1.766462    1.039932
