93

C      2.335495   -4.515599    3.104009
C      3.489955    4.243080   -0.589806
C      0.681069    4.103662   -1.644980
C     -1.862562   -3.598579    0.987088
C     -3.171351   -1.742832    1.805629
C      0.902787   -3.941453    2.933568
C      0.768136   -2.690145    3.777102
C      5.560540    0.518328   -2.693200
C      7.497957    1.044925   -1.492847
C     -4.498798    2.290625    1.823553
C     -4.788820    3.551241   -0.130462
C     -5.466135   -1.887754   -2.433040
C     -4.172391   -2.813078   -4.143471
C      6.339355    0.000091   -3.742985
C      8.290758    0.554643   -2.483296
C     -5.486113    2.975208    2.477933
C     -5.793901    4.258257    0.514854
C     -6.631435   -1.999517   -3.172879
C     -5.326993   -2.938206   -4.911095
C      2.937984   -1.475671    3.988570
C      2.412768    3.329537   -0.035033
C      1.496246    2.916461   -1.152829
C      6.125249    1.043685   -1.562150
C     -4.112890    2.536272    0.529557
C     -4.229540   -2.276781   -2.873008
C      1.680872   -1.619745    3.378509
C      7.708418    0.034833   -3.603025
C     -6.151215    3.980240    1.817204
C     -6.552303   -2.542000   -4.449505
C      3.816921   -0.513434    3.559305
C      1.394002   -0.754799    2.351931
C      2.090495    1.101442    0.931877
C     -0.054159    0.092412    0.671094
C      3.100591    2.094339    0.526211
C      2.340810    0.213378    1.956314
C      0.880929    1.032333    0.290456
C      0.186762   -0.810415    1.703159
C     -1.350113    0.030023   -0.027566
C     -1.686752   -1.453082   -0.149521
C      5.312163    1.576515   -0.467794
C     -3.059030    1.790091   -0.118553
C     -3.017789   -2.130368   -2.088323
C     -1.815569   -2.096003    1.186338
Br     8.791411   -0.672322   -5.025469
Br    -7.528738    4.965794    2.691455
Br    -8.127392   -2.724086   -5.536971
O      4.931754   -0.437190    4.151404
O      5.836575    2.043129    0.563893
O     -2.734480    2.029479   -1.285649
O     -1.918619   -2.555528   -2.576970
O      0.587695    1.903890   -0.745160
O      3.481896    0.266019    2.584566
O      3.919974    1.582039   -0.536024
O     -2.376068    0.771802    0.567040
O     -2.925240   -1.563876   -0.841443
O     -0.765928   -1.737323    2.068915
H      3.073665   -3.931945    2.552277
H      2.368998   -5.572561    2.776882
H      2.536347   -4.536562    4.205363
H      4.118853    4.653440    0.246674
H      3.005592    5.091710   -1.105533
H      4.136403    3.703969   -1.300046
H      0.153332    4.585889   -0.799050
H     -0.084556    3.696418   -2.347950
H      1.310933    4.816606   -2.182303
H     -1.914679   -4.076563    1.986140
H     -1.023551   -3.945536    0.386784
H     -2.836913   -3.813026    0.474853
H     -3.907279   -1.581896    0.993991
H     -3.511319   -2.499467    2.514204
H     -3.041591   -0.784912    2.345518
H      0.888802   -3.693679    1.855715
H      0.233908   -4.758089    3.237486
H      1.194534   -3.057083    4.787289
H     -0.235049   -2.425008    4.087474
H      4.479417    0.474034   -2.838544
H      7.957401    1.460613   -0.602070
H     -3.983501    1.500500    2.361005
H     -4.556061    3.809328   -1.131545
H     -5.546087   -1.458564   -1.435468
H     -3.210448   -3.122614   -4.514947
H      5.868597   -0.408973   -4.621942
H      9.382925    0.577903   -2.385547
H     -5.765161    2.756621    3.503993
H     -6.340963    5.059244    0.021410
H     -7.602397   -1.691904   -2.826718
H     -5.251052   -3.356752   -5.899406
H      3.163972   -2.156648    4.800607
H      1.871428    3.809607    0.801982
H      2.091677    2.518881   -1.978867
H      3.724035    2.471286    1.372093
H     -1.203801    0.398195   -1.060654
H     -0.841653   -1.896452   -0.709632
