57

C     -4.073885    3.328489    1.253240
C      5.515825    0.745947   -0.322239
C      4.953984   -2.088509   -0.132737
C     -3.294660   -1.986077    1.386127
C     -3.199921   -2.781771   -0.907924
C     -4.119875    2.625767   -0.054821
C     -3.087879    1.522881   -0.227466
C     -1.399606    3.374953   -0.102060
C      4.134375    0.220542   -0.644142
C      3.879231   -1.075668    0.070353
C     -1.700557    2.034561   -0.182026
C     -0.070453    3.734861   -0.062053
C     -0.644434    1.121194   -0.219266
C      1.759023    0.687061   -0.211048
C      0.253432   -1.089520   -0.338744
C      3.132422    1.242803   -0.159256
C     -0.044027   -2.544836   -0.429309
C      0.673985    1.568175   -0.174658
C      1.543955   -0.653859   -0.293829
C     -0.857721   -0.227427   -0.303520
C     -1.203401   -2.813463    0.501772
C     -2.406688   -2.004500    0.143910
O      0.250420    4.952204    0.011635
O      3.427638    1.703417    1.106114
O      1.072252   -3.278150   -0.031962
O     -0.748897   -2.561672    1.792468
O      2.591717   -1.546707   -0.331567
O      0.891140    2.860094   -0.097622
O     -2.132215   -0.727793   -0.353644
H     -3.183362    3.206031    1.862130
H     -4.945483    3.065677    1.904522
H     -4.228718    4.430907    1.059654
H      6.235172    0.324025   -1.045224
H      5.500905    1.851023   -0.430406
H      5.791191    0.460783    0.714101
H      5.931665   -1.580361   -0.193464
H      4.800592   -2.728587   -1.017680
H      4.946418   -2.765967    0.753661
H     -2.618827   -1.859223    2.239640
H     -4.124560   -1.285757    1.316708
H     -3.700189   -3.037637    1.450633
H     -2.834591   -2.458941   -1.892062
H     -4.261788   -2.489755   -0.815281
H     -3.031622   -3.851502   -0.699227
H     -5.116379    2.096432   -0.123839
H     -4.127184    3.314711   -0.929948
H     -3.293791    0.857590    0.654169
H     -3.347730    1.058816   -1.199844
H     -2.194545    4.087776   -0.087466
H      4.045417    0.069041   -1.738673
H      3.772278   -0.841462    1.156608
H      3.188829    2.101579   -0.882039
H     -0.279288   -2.752068   -1.488807
H     -1.461212   -3.893315    0.366867
H      2.583885    1.952724    1.593166
H      1.177832   -4.012129   -0.671163
H     -0.320096   -1.663409    1.778105
