58

C      5.401759    2.889186   -1.250048
C     -5.446055    1.722009    0.572606
C     -5.024726   -0.734150   -1.759126
C      2.185959   -3.734075   -0.569968
C      2.095413   -3.072895    1.772647
C      4.161111    1.989589   -1.172646
C      4.221194    1.290730    0.136866
C      3.015733    0.357882    0.384715
C     -1.038293   -2.768946   -0.264079
C     -0.020385   -3.490657    0.589611
C      1.838430    2.558778    0.597971
C     -4.335434    1.204299   -0.355552
C     -4.461871   -0.273582   -0.405951
C      1.789187    1.185280    0.419535
C     -0.918946   -1.296631   -0.073018
C      0.651765    3.283262    0.606081
C      0.523203    0.619190    0.260680
C     -1.901815    0.871694    0.124327
C     -3.059426    1.762417    0.154834
C     -2.028988   -0.485802   -0.051808
C      0.351874   -0.734036    0.084699
C     -0.629611    1.410423    0.279457
C      1.374478   -2.940448    0.439475
O      0.738355    4.526407    0.770427
O     -3.209212    2.384503    1.416882
O     -3.298451   -1.008042   -0.205908
O     -0.510846    2.705251    0.450823
O      1.423501   -1.588133    0.059589
H      5.248983    3.766091   -1.887327
H      6.300677    2.332076   -1.568178
H      5.636581    3.278069   -0.213140
H     -6.415993    1.700608    0.031125
H     -5.184481    2.721135    0.945554
H     -5.529062    0.995627    1.420783
H     -4.234495   -0.847577   -2.512937
H     -5.762619    0.027311   -2.071567
H     -5.563065   -1.690995   -1.618318
H      1.843752   -3.559311   -1.599046
H      2.162503   -4.827244   -0.322455
H      3.238453   -3.410377   -0.440006
H      1.432155   -2.740010    2.614508
H      3.005853   -2.444014    1.832403
H      2.434419   -4.121666    1.898560
H      3.263373    2.529252   -1.434983
H      4.309625    1.238578   -2.019279
H      4.418757    1.909592    1.015761
H      5.097253    0.576602    0.081030
H      3.074474   -0.323505   -0.499021
H      3.258618   -0.122505    1.348292
H     -0.852487   -2.978502   -1.337584
H     -2.040860   -3.107621    0.067806
H     -0.309266   -3.363466    1.658089
H     -0.037086   -4.562702    0.300131
H      2.788511    3.071022    0.748355
H     -4.609512    1.610382   -1.376402
H     -5.203381   -0.665697    0.351602
H     -2.799735    2.631847   -0.524556
H     -2.859848    1.743497    2.097680
