56

C      5.854418    2.314793   -0.819161
C     -5.226829    2.305621    0.067682
C     -5.523697   -0.736541    0.317108
C      2.008303   -3.817330   -0.690635
C      1.558551   -3.656140    1.702705
C      4.537159    1.543246   -0.935245
C      4.253588    0.973380    0.401496
C      2.940887    0.167427    0.480805
C     -1.246844   -2.691353   -0.120194
C     -0.247865   -3.507153    0.109042
C      1.953641    2.448264    0.211946
C     -4.093486    1.305071    0.148885
C     -4.450637   -0.008104   -0.473524
C      1.801662    1.067946    0.246466
C     -0.996445   -1.263462   -0.151212
C      0.865134    3.254882   -0.029102
C      0.530348    0.521106    0.037149
C     -1.775583    0.995073   -0.410683
C     -2.934431    1.888092   -0.670524
C     -2.022402   -0.355995   -0.387252
C      0.306867   -0.831684    0.067167
C     -0.490947    1.431853   -0.195935
C      1.139736   -3.085815    0.342170
O      1.050578    4.504824   -0.053377
O     -3.280501    1.722042   -2.030220
O     -3.309093   -0.811930   -0.601597
O     -0.316773    2.727552   -0.225162
O      1.334175   -1.715475    0.307210
H      6.021167    2.961214   -1.709712
H      6.704684    1.612732   -0.662258
H      5.876783    2.987016    0.061400
H     -4.972987    3.181285   -0.558865
H     -6.142145    1.852266   -0.369500
H     -5.421536    2.658562    1.092311
H     -5.515922   -1.784220    0.013301
H     -6.501407   -0.309409    0.016286
H     -5.364286   -0.657960    1.392973
H      3.028491   -3.389614   -0.708342
H      1.482145   -3.682173   -1.661524
H      1.972786   -4.891186   -0.440021
H      2.544542   -3.273174    2.023726
H      1.518142   -4.745047    1.627899
H      0.800605   -3.354830    2.459001
H      3.762075    2.056701   -1.478428
H      4.827533    0.683566   -1.645265
H      4.274489    1.689047    1.241198
H      5.117721    0.272048    0.639656
H      2.947874   -0.254287    1.498124
H      3.010535   -0.628754   -0.316348
H     -2.265638   -3.040684   -0.289475
H     -0.455583   -4.572486    0.128549
H      2.919544    2.851164    0.404847
H     -3.704756    1.189723    1.181643
H     -4.891811    0.201599   -1.475855
H     -2.721365    2.925522   -0.415734
H     -3.071190    0.771187   -2.304208
