51

C      3.915857    1.621047    2.107505
C      3.633537   -2.427368   -0.595299
C      2.116398   -3.922281    0.721382
C     -4.628390    2.039404   -2.189717
C     -4.078320   -1.222302   -2.309589
C      3.560144    0.155942    1.749273
C      2.237582   -0.207990    2.393237
C      0.695197    1.739328    2.674085
C     -0.085784   -0.939222   -1.148923
C      2.190374   -2.703056   -0.165181
C     -3.618661    1.061574   -1.585833
C     -3.254265    0.020019   -2.581576
C      1.101044    0.597684    1.956089
C      0.669196   -0.729069    0.012523
C     -1.090125   -0.103868   -1.514463
C     -0.313395    2.560204    2.293438
C      0.371016    0.369462    0.801768
C     -1.352908    0.971879   -0.701043
C     -2.452067    1.883738   -1.107109
C     -0.648341    1.245015    0.465750
O     -0.584599    3.558126    3.024736
O     -2.825761    2.750151   -0.115774
O      1.655712   -1.563528    0.365023
O     -1.872217   -0.256437   -2.650828
O     -0.974559    2.302712    1.190391
H      4.187574    1.596972    3.181647
H      4.748063    1.975240    1.502620
H      3.019010    2.258635    2.008072
H      3.892864   -3.227526   -1.332356
H      3.614142   -1.474263   -1.146639
H      4.326068   -2.428830    0.264011
H      2.150734   -4.871115    0.166744
H      2.924377   -3.957445    1.481548
H      1.159679   -3.818634    1.306708
H     -4.712594    2.915595   -1.514990
H     -4.319446    2.342186   -3.216058
H     -5.614092    1.509191   -2.187609
H     -5.002425   -0.920457   -1.736294
H     -4.465795   -1.682264   -3.249003
H     -3.554050   -1.963563   -1.698789
H      4.388636   -0.443410    2.174098
H      3.549044    0.188923    0.647043
H      2.420595    0.113984    3.480801
H      2.071862   -1.277210    2.553770
H      1.241812    1.957068    3.591863
H      0.150067   -1.782604   -1.749179
H      1.657910   -2.967845   -1.101709
H     -4.119664    0.649792   -0.672847
H     -3.562914    0.378894   -3.595904
H     -2.081570    2.470899   -1.972751
H     -2.436552    3.656620   -0.274664
