57

C     -3.911860   -2.980997   -1.304239
C      5.405849   -1.152595    0.005116
C      4.942528    1.690592   -0.432661
C     -3.297396    2.764332   -0.842299
C     -2.922679    2.371388    1.533448
C     -3.877709   -1.501059   -0.847814
C     -3.262668   -1.419311    0.533912
C     -1.607968   -3.233730    0.974459
C      4.062462   -0.651968   -0.481545
C      3.801395    0.762579   -0.090745
C     -1.880060   -1.901905    0.609691
C     -0.327752   -3.715209    0.993870
C     -0.753139   -1.160292    0.287245
C      1.636800   -0.905579   -0.009942
C      0.186196    0.890896   -0.388563
C      2.971983   -1.543384    0.048015
C     -0.011317    2.304168   -0.777444
C      0.538270   -1.693972    0.320919
C      1.456326    0.410156   -0.371343
C     -0.935674    0.156717   -0.071624
C     -1.044421    2.922733    0.095583
C     -2.336483    2.151871    0.153668
O     -0.164900   -4.922842    1.332036
O      3.226473   -1.878606    1.395287
O      1.148110    3.049244   -0.724528
O     -0.508817    3.138081    1.362408
O      2.587708    1.179592   -0.700267
O      0.675511   -2.942796    0.672533
O     -2.152702    0.772781   -0.127597
H     -2.913697   -3.308127   -1.629730
H     -4.707426   -3.131915   -2.050705
H     -4.182147   -3.554093   -0.393885
H      5.590666   -2.126255   -0.467870
H      6.171189   -0.407914   -0.339266
H      5.354303   -1.198325    1.109224
H      5.743618    1.519656    0.291624
H      5.262805    1.621565   -1.486229
H      4.568660    2.731679   -0.265777
H     -4.331247    2.492835   -0.512618
H     -3.224616    3.866715   -0.706006
H     -3.101094    2.461426   -1.871861
H     -4.009277    2.236479    1.571731
H     -2.617752    3.388466    1.918002
H     -2.399953    1.652970    2.231101
H     -4.936937   -1.180957   -0.846375
H     -3.260495   -1.033915   -1.634826
H     -3.869783   -2.199170    1.108088
H     -3.515930   -0.527901    1.109041
H     -2.446700   -3.869891    1.240754
H      4.008233   -0.707687   -1.607850
H      3.710137    0.798104    1.030595
H      2.957270   -2.491207   -0.564555
H     -0.427734    2.285369   -1.827807
H     -1.249084    3.954143   -0.317298
H      2.389792   -1.828236    1.927547
H      1.539192    3.056076   -1.637801
H      0.253941    2.539227    1.475175
