56

C      5.796832   -0.936723   -0.691899
C     -5.608788   -1.760963    0.187576
C     -5.314929    0.664397    1.668851
C      2.608994    2.268206    1.872067
C      2.332635    3.348740   -0.292404
C      4.887779   -0.400061    0.363746
C      3.492279   -1.039339    0.300629
C      2.839217   -0.795330   -1.010369
C     -0.753266    2.360208    0.964215
C      0.431112    2.914511    1.105733
C      1.309486   -2.593157   -1.809332
C     -4.236898   -1.176137    0.477618
C     -4.410711    0.329928    0.511487
C      1.496472   -1.343878   -1.186826
C     -0.781120    1.058016    0.306400
C      0.067747   -3.153179   -1.951993
C      0.308204   -0.768139   -0.751333
C     -2.057179   -0.800274   -0.493335
C     -3.367535   -1.506559   -0.705702
C     -1.992696    0.424136    0.124527
C      0.384661    0.463826   -0.132809
C     -0.888830   -1.394127   -0.933277
C      1.704197    2.321636    0.654867
O     -0.047981   -4.271739   -2.515118
O     -3.906089   -0.971850   -1.883038
O     -3.180106    0.998929    0.556608
O     -1.009629   -2.565709   -1.522364
O      1.571421    1.073986    0.036501
H      5.674017   -2.014427   -0.910051
H      5.660449   -0.403230   -1.676935
H      6.851829   -0.723638   -0.384965
H     -6.209848   -1.888670    1.091489
H     -5.449154   -2.740355   -0.317936
H     -6.079862   -1.067865   -0.562504
H     -6.369241    0.627885    1.266835
H     -5.263489   -0.075855    2.483220
H     -5.166749    1.712526    2.017187
H      2.262026    1.483669    2.550401
H      3.672278    2.262156    1.636418
H      2.421880    3.243508    2.414202
H      3.329720    3.011579   -0.631289
H      2.448005    4.273627    0.295760
H      1.619579    3.530750   -1.099543
H      4.712279    0.695323    0.157991
H      5.338992   -0.467984    1.353164
H      2.993555   -0.778090    1.214870
H      3.726205   -2.156695    0.320867
H      3.017361    0.203769   -1.452553
H      3.474050   -1.401181   -1.750346
H     -1.665311    2.827203    1.309170
H      0.480960    3.877589    1.588781
H      2.191426   -3.119043   -2.184415
H     -3.780405   -1.577999    1.391350
H     -4.907991    0.607194   -0.448630
H     -3.159818   -2.587328   -0.796134
H     -3.498021   -0.103775   -2.127433
