78

C      5.060159   -2.303225    0.003134
C      6.019230    2.577863    0.643430
C      7.800945    0.850994    0.612755
C     -5.132045    3.663515    0.166381
C      0.621051   -2.971478   -1.073983
C     -5.076401    0.062631   -0.495393
C      5.858956   -1.076997   -0.238397
C     -5.562413    1.922771    1.811305
C     -2.976357    2.137585   -0.769622
C      4.099312    0.760733   -0.026994
C     -2.435602   -0.436272   -2.309642
C      6.467915    1.288808    0.038141
C     -4.769513    2.390688    0.864198
C     -0.599197   -2.126857   -1.267618
C     -3.546264    1.625366    0.536809
C     -5.179185    0.685195    2.467437
C     -1.624267    1.462264   -0.891108
C      2.868539    0.043166    0.311179
C     -0.411975   -0.671787   -1.011865
C      0.435559   -0.298316    0.142188
C     -1.711003   -2.784420   -0.478785
C     -4.269715   -0.264454    1.830753
C     -0.278563    0.704341    0.969961
C     -2.707385   -0.650976   -0.009324
C     -3.883713    0.130543    0.402079
C      5.407241    0.201329    0.346435
C     -1.788497   -0.000963   -1.011678
C     -2.968684   -1.938808   -0.728859
O     -5.624384    0.402402    3.603840
O      2.833036   -0.916793    1.063931
O     -1.410357   -2.757805    0.873524
O     -4.777424   -1.522261    1.944853
O     -0.263220    0.638384    2.210415
O      5.385346    0.019661    1.754876
O     -4.038498   -2.662768   -0.302400
O     -2.970138   -1.677273   -2.091311
O     -0.962989    1.716393    0.346398
O      1.629806    0.423749   -0.217352
H      5.701066   -3.226333   -0.321322
H      4.839543   -2.522039    1.055622
H      4.151708   -2.385220   -0.626657
H      5.443303    2.412100    1.571080
H      6.926685    3.226958    0.862825
H      5.411717    3.161197   -0.091872
H      8.336958    1.808136    0.871839
H      8.407993    0.349171   -0.171879
H      7.707961    0.276985    1.539896
H     -5.031596    3.471067   -0.924906
H     -4.452688    4.500354    0.457006
H     -6.139704    3.967009    0.455292
H      0.457591   -3.916914   -1.634600
H      0.830815   -3.252635   -0.040532
H      1.532737   -2.518228   -1.564220
H     -5.450190    1.063341   -0.837152
H     -5.938215   -0.361413    0.077665
H     -4.961195   -0.548406   -1.388695
H      6.915103   -1.322102    0.134341
H      6.042896   -0.968317   -1.364364
H     -6.484228    2.452043    2.093199
H     -2.805452    3.220446   -0.644744
H     -3.635909    1.963646   -1.615938
H      4.034722    1.832173    0.321796
H      4.148953    0.924622   -1.171859
H     -3.146831    0.318752   -2.698596
H     -1.659019   -0.535798   -3.118859
H      6.511521    1.317681   -1.082091
H     -0.896610   -2.250264   -2.335055
H     -2.748588    1.698663    1.285213
H     -1.104149    1.850572   -1.762457
H      0.077550   -0.246938   -1.920831
H      0.717590   -1.125057    0.821958
H     -1.835426   -3.799128   -0.899675
H     -3.295712   -0.256528    2.403053
H     -2.136162   -0.904531    0.934574
H     -1.041473   -3.659277    1.111742
H     -5.707568   -1.632101    1.652837
H      4.706784    0.605152    2.150846
H     -3.951789   -3.635764   -0.388391
