49

C     -7.252858    0.359545   -0.785630
C     -3.926887    0.853759    3.617263
C     -3.086501    0.399314   -1.298670
C      4.382223   -1.549744    0.333217
C     -4.465014    0.386199   -1.128480
C      5.702360   -1.359429   -0.019468
C     -0.830207    0.538541   -0.292347
C      2.094656   -0.608612    0.764986
C     -2.812299    0.636268    1.107389
C      4.063958    0.779077    0.118950
C     -0.703264   -1.739566   -1.232802
C      7.536950    1.710699   -0.319781
C     -2.304365    0.522310   -0.190822
C      3.525550   -0.477895    0.410937
C     -0.210913   -0.830236   -0.160230
C      1.273411   -0.689032   -0.480296
C     -5.017311    0.495184    0.128699
C      6.234964   -0.128427   -0.307089
C     -4.180558    0.619678    1.238264
C      5.383918    0.949521   -0.230882
C      1.569173   -1.914490   -1.222372
O      2.647784   -2.294507   -1.715602
O     -6.389637    0.485773    0.336065
O     -4.760066    0.727115    2.484506
O      0.380922   -2.669896   -1.316928
O      7.505414    0.332719   -0.681518
O      6.167546    2.064267   -0.566001
H     -7.046877    1.141941   -1.558149
H     -8.309414    0.534815   -0.473093
H     -7.130550   -0.613131   -1.290902
H     -4.587931    0.724067    4.522540
H     -3.446688    1.852499    3.670998
H     -3.181470    0.029245    3.635737
H     -2.654945    0.315385   -2.306563
H      4.030319   -2.566946    0.563227
H     -5.110468    0.290702   -1.978801
H      6.358145   -2.233687   -0.072681
H     -0.542817    0.913682   -1.314697
H     -0.354287    1.256185    0.414678
H      1.751161    0.238693    1.412855
H      1.970255   -1.580258    1.304264
H     -2.168695    0.733004    1.971001
H      3.452109    1.668459    0.159355
H     -1.650601   -2.209838   -0.955484
H     -0.829949   -1.194825   -2.180179
H      7.676865    1.827755    0.785714
H      8.234655    2.296785   -0.916206
H     -0.352594   -1.249638    0.863659
H      1.364827    0.226970   -1.112440
