58

C      3.936842    2.643362    0.755922
C     -4.655783    1.011352   -1.274565
C     -3.227917   -0.746611   -3.359551
C      3.674978   -3.297361   -0.094191
C      3.995477   -1.677517   -1.928862
C      4.032410    1.117150    0.503890
C      3.284948    0.380407    1.595052
C      0.644183   -2.501255   -1.700232
C      1.913299   -2.882656   -1.791064
C      1.369227    1.678012    2.545288
C     -4.590777    2.397606    2.918485
C     -3.271061    0.431407   -1.195615
C     -3.190412   -0.912276   -1.850403
C      1.856019    0.687137    1.673277
C      0.223170   -1.460544   -0.781129
C      0.067796    2.045906    2.625415
C     -4.144795    1.284085    2.052390
C      0.862325    0.116821    0.897561
C     -1.435613   -0.022294    0.264972
C     -2.875765    0.311699    0.279511
C     -1.072146   -1.018920   -0.631273
C      1.181576   -0.872110    0.002857
C     -0.466996    0.543752    1.029324
C      2.966785   -2.263208   -0.956570
Cl    -3.523086    2.446093    4.343498
O     -0.347555    2.950582    3.427170
O     -4.646729    0.129224    2.267812
O     -2.040954   -1.628108   -1.439381
O     -0.817669    1.478454    1.873489
O     -3.209334    1.440814    1.021223
O      2.468472   -1.279922   -0.108738
H      4.387845    3.124911   -0.117078
H      2.886675    2.957955    0.831497
H      4.428589    2.889551    1.720279
H     -4.903097    1.270010   -2.319615
H     -4.616313    1.993351   -0.725359
H     -5.407224    0.394979   -0.775459
H     -4.279878   -0.584934   -3.670296
H     -2.610935    0.138096   -3.666210
H     -2.878021   -1.686107   -3.833015
H      3.068580   -3.438416    0.842636
H      3.806239   -4.265183   -0.615745
H      4.657074   -2.855089    0.199148
H      4.538341   -2.541680   -2.381170
H      3.388370   -1.250653   -2.764719
H      4.644332   -0.939470   -1.459893
H      5.118210    0.903539    0.557824
H      3.599445    1.023960   -0.505299
H      3.732888    0.852178    2.539195
H      3.586412   -0.657922    1.748999
H     -0.131691   -2.961432   -2.318728
H      2.165485   -3.669188   -2.500018
H      2.082488    2.179953    3.195637
H     -4.562854    3.371344    2.365652
H     -5.607321    2.193828    3.268551
H     -2.554516    1.151993   -1.638140
H     -4.078744   -1.516992   -1.571835
H     -3.421294   -0.609667    0.627600
