53

C     -4.559415    2.190522    1.334316
C     -4.893360    0.761306   -0.767895
C      4.901966    0.348638    1.295038
C      5.435092    0.559888   -1.171721
C      0.078326   -2.943749    2.123194
C     -0.469069    2.797743   -1.908849
C      0.832839    2.898188   -1.479639
C     -1.189979    1.675115   -1.600595
C      1.393557    1.877241   -0.753709
C     -3.077006    0.384798    0.804264
C      3.352200   -0.507918   -0.429829
C     -2.588050   -0.723463   -0.026832
C     -0.743078   -1.807609   -1.242498
C      2.300524   -1.038871    0.456562
C     -0.639200   -2.931132   -0.201086
C     -4.124623    1.077081    0.434346
C      4.476306    0.089423   -0.089205
C     -0.634808    0.641771   -0.868276
C      0.697044    0.721608   -0.420760
C     -0.266019   -0.879928    0.864639
C     -1.139911   -0.635273   -0.390160
N     -0.430552   -2.262259    1.021009
N      1.006592   -0.451462    0.302920
H     -4.011364    2.175232    2.312031
H     -4.318321    3.187675    0.865055
H     -5.630177    2.202057    1.545961
H     -4.315521    0.958448   -1.678828
H     -5.835402    1.360027   -0.845084
H     -5.140675   -0.334749   -0.821503
H      5.304584    1.416567    1.291892
H      5.799863   -0.251134    1.578631
H      4.112940    0.359745    2.048840
H      5.258827    1.664549   -1.215294
H      6.469996    0.425727   -0.803043
H      5.243235    0.072627   -2.131891
H      0.822926   -3.742503    1.901543
H      0.424591   -2.208833    2.881515
H     -0.778934   -3.481368    2.631453
H     -0.932185    3.618892   -2.498578
H      1.431020    3.765529   -1.701607
H     -2.198388    1.634407   -1.963725
H      2.432983    1.951677   -0.397393
H     -2.534227    0.617329    1.751123
H      3.131770   -0.653424   -1.520563
H     -2.705509   -1.678720    0.535374
H     -3.169370   -0.817213   -0.965267
H     -1.546848   -1.996689   -1.976874
H      0.253479   -1.680338   -1.726464
H      2.268158   -2.159361    0.382964
H      2.670107   -0.878478    1.518793
H     -1.670215   -3.402445   -0.203911
H      0.067184   -3.706419   -0.484559
H     -0.623908   -0.260469    1.686891
