50

C      5.228565    2.478503    0.008108
C     -2.779946   -3.417638    2.072617
C     -4.850167    1.016747   -0.832793
C     -3.997438    1.287585    0.398059
C      3.455796   -2.166889    0.298632
C      4.715873   -2.222234    0.852996
C     -6.111785    1.871673   -0.808329
C     -1.621751    0.885420   -0.257393
C     -2.749627   -0.811156    0.897228
C      3.679795    0.149127   -0.129971
C      0.770919    0.824590   -2.308428
C     -2.777065    0.441923    0.346921
C      2.910036   -0.979730   -0.205053
C     -0.468121    0.078134   -0.302188
C      0.873792    0.324088   -0.883832
C      5.452341   -1.080373    0.910910
C      4.957088    0.107544    0.428714
C     -1.649045   -1.631180    0.876771
C      1.561502   -0.995305   -0.784251
C     -0.471644   -1.166911    0.255410
O     -6.813344    1.534106   -1.988720
O      2.031406    1.047725   -2.842495
O      6.732449   -1.171102    1.481954
O      5.737353    1.253929    0.504431
O     -1.637410   -2.893909    1.436945
O      0.759176   -1.791689    0.101917
H      4.304370    2.727163    0.561137
H      4.936401    2.293184   -1.055245
H      6.005235    3.265169    0.070757
H     -2.877547   -3.061249    3.134743
H     -3.708824   -3.187685    1.511117
H     -2.736800   -4.527143    2.146121
H     -4.263544    1.358459   -1.710654
H     -5.090412   -0.054378   -0.859253
H     -3.712830    2.362828    0.338646
H     -4.566601    1.137784    1.329869
H      2.872689   -3.076169    0.253951
H      5.087613   -3.185827    1.231205
H     -6.709482    1.732805    0.091034
H     -5.867446    2.947382   -0.917612
H     -1.571458    1.846918   -0.704730
H     -3.674923   -1.149722    1.373795
H      3.366733    1.119713   -0.486521
H      0.278821    1.838232   -2.234910
H      0.116322    0.217669   -2.931478
H      1.408638    1.064473   -0.267291
H      1.546931   -1.454067   -1.808654
H     -7.736693    1.243697   -1.719530
H      2.355170    1.924430   -2.519038
H      7.298890   -0.356643    1.540957
