43

C      0.332399    3.199285   -0.610135
C      3.618866   -0.398789   -0.851909
C      2.384508   -0.388483    1.303694
C     -2.193005   -0.751360   -1.619454
C     -1.185912    2.308551    1.098853
C     -2.128654    1.188623    0.632629
C      0.441489   -2.105671    0.158572
C     -1.004669   -2.327830   -0.198726
C     -2.875464   -1.698666    1.788224
C      0.131608    2.053800    0.386487
C     -1.086123    0.059536    0.464968
C      1.223251   -1.330802   -0.808231
C     -0.121182    0.764456   -0.405389
C      1.064396    0.104159   -0.913524
C      2.235615   -0.356982   -0.167022
C     -1.818983   -1.073727   -0.196204
N     -3.044615   -1.286181    0.577853
S     -2.637642   -2.434338    3.210801
H      1.308150    3.695882   -0.446941
H      0.230926    2.817879   -1.651845
H     -0.446492    3.981418   -0.485721
H      4.125781    0.547286   -0.552328
H      4.208912   -1.245912   -0.482442
H      3.467356   -0.392130   -1.943723
H      1.542668   -0.155816    1.928874
H      2.739806   -1.423278    1.587416
H      3.222563    0.280772    1.588596
H     -2.902868    0.066393   -1.727574
H     -2.714437   -1.671487   -2.016536
H     -1.273866   -0.659052   -2.227936
H     -1.618146    3.287345    0.841472
H     -1.101691    2.191921    2.188841
H     -2.864322    0.933062    1.389722
H     -2.516194    1.507115   -0.336526
H      0.893981   -3.143241    0.221087
H      0.482891   -1.749399    1.216139
H     -1.113732   -2.892479   -1.152775
H     -1.410719   -3.030298    0.588434
H      0.990269    1.999126    1.040310
H     -0.796708   -0.193477    1.473736
H      1.592269   -1.936374   -1.689356
H     -0.760537    1.142440   -1.267636
H      1.378257    0.516723   -1.934774
