55

C      5.034660   -1.252815    0.759544
C     -5.410133   -0.778141   -0.555609
C     -4.978476    1.726207    0.790136
C      3.743910    2.520385    0.244787
C      1.814704    2.683637   -1.329068
C      3.606754   -1.697493    0.656159
C      3.069057   -1.581633   -0.752933
C      0.018120    2.398598    0.662441
C      1.447302    2.609191    1.096875
C      1.342593   -3.329444   -1.076530
C     -4.006931   -0.297630   -0.317219
C     -3.880486    0.689767    0.799154
C      1.648182   -1.996937   -0.746560
C     -0.227423    0.981477    0.314894
C      0.052400   -3.750619   -1.022369
C      0.656995   -1.127066   -0.375254
C     -1.706807   -0.854490    0.011375
C     -3.064496   -1.461402    0.023464
C     -1.520207    0.454587    0.343925
C      0.856225    0.191198   -0.044476
C     -0.632095   -1.632292   -0.344061
C      2.340265    2.085418   -0.031874
O     -0.300567   -4.929103   -1.303092
O     -3.200604   -2.504506   -0.859456
O     -2.595385    1.286775    0.714445
O     -0.868493   -2.904765   -0.665057
O      2.138136    0.708110   -0.079670
H      5.521058   -1.324993   -0.239527
H      5.596359   -1.929742    1.432427
H      5.018760   -0.211024    1.149850
H     -5.356169   -1.898358   -0.682638
H     -5.732912   -0.379827   -1.542425
H     -6.081770   -0.498478    0.265151
H     -4.637202    2.596469    1.348914
H     -5.259393    1.955830   -0.257822
H     -5.863037    1.309508    1.280959
H      3.932541    3.496489   -0.267766
H      3.915788    2.726965    1.336032
H      4.515962    1.782511   -0.079087
H      0.921707    2.052169   -1.612490
H      2.591094    2.548578   -2.106607
H      1.516172    3.732202   -1.189507
H      3.612663   -2.791153    0.965574
H      2.975331   -1.199560    1.391038
H      3.295519   -0.589975   -1.146655
H      3.671204   -2.353584   -1.348412
H     -0.678398    2.753868    1.457846
H     -0.148346    3.074949   -0.208536
H      1.677943    3.670861    1.216600
H      1.638780    2.012594    2.014159
H      2.154480   -3.952788   -1.357563
H     -3.563402    0.164108   -1.243702
H     -3.907491    0.139256    1.770778
H     -3.339424   -1.777241    1.069857
H     -3.365018   -3.346647   -0.330420
