43

C      1.003726    2.959758    1.023442
C      3.418382   -0.690131    1.325391
C      2.375327   -0.894298   -0.910859
C     -3.165161   -0.426802   -0.666476
C     -0.705737    2.716200   -0.799938
C     -1.679245    1.573862   -1.069351
C     -0.066002   -2.154800    0.474938
C     -1.436639   -1.534447    0.677599
C     -1.959796   -2.908318   -1.759465
C      0.483124    2.138846   -0.102237
C     -0.776140    0.340185   -0.808439
C      0.943432   -1.369398    1.222718
C     -0.079419    0.789964    0.383181
C      0.963431    0.065080    1.074096
C      2.090920   -0.685569    0.529608
C     -1.730036   -0.808217   -0.633052
N     -1.463575   -1.745478   -1.705454
S     -2.632239   -4.347852   -1.720448
H      2.118325    2.990819    0.947166
H      0.669878    4.015962    0.888927
H      0.732086    2.612176    2.022688
H      4.124940    0.008473    0.853900
H      3.168739   -0.276000    2.344710
H      3.791635   -1.707022    1.464265
H      2.829536    0.052925   -1.320062
H      1.590545   -1.270494   -1.546970
H      3.211517   -1.650848   -1.014332
H     -3.758890   -1.376072   -0.794936
H     -3.537578    0.014645    0.280195
H     -3.372965    0.180048   -1.548429
H     -1.173199    3.533555   -0.240485
H     -0.396083    3.127305   -1.802665
H     -2.474017    1.645910   -0.327509
H     -2.009818    1.585703   -2.119353
H      0.146993   -2.326114   -0.594370
H     -0.164453   -3.198413    0.898553
H     -1.468639   -0.809755    1.499385
H     -2.233123   -2.309577    0.793632
H      1.261892    1.923911   -0.856073
H     -0.194170    0.288344   -1.758174
H      1.178632   -1.816233    2.238652
H     -0.873656    1.103876    1.130295
H      1.247521    0.638291    2.025736
