44

C      2.628289   -0.956611   -0.987165
C     -2.667714   -1.293264    0.546195
C      3.827664   -1.679899   -0.970704
C     -3.838669   -1.894224    0.131991
C      3.787226    0.921233   -0.163266
C     -3.773405    0.777798    0.643832
C     -1.017922    1.511288   -0.730302
C      1.007514    0.903367    1.595851
C      7.036691   -0.660375    0.431331
C     -6.984682   -0.287995   -0.784036
C      2.583937    0.357246   -0.584155
C     -2.605873    0.057848    0.812462
C      0.083193    0.459177   -0.526063
C     -0.109754    0.107219    0.928754
C      5.007492   -1.103932   -0.550789
C     -5.001734   -1.175608   -0.035736
C      4.978990    0.213142   -0.143600
C     -4.956836    0.177891    0.226602
C      1.380345    1.197777   -0.564065
C     -1.394673    0.779715    1.259349
O      1.387598    1.878895    0.661714
O     -1.249106    1.988475    0.536289
O      6.328932   -1.563466   -0.426742
O     -6.307959   -1.504528   -0.434558
O      6.285648    0.520846    0.217788
O     -6.241914    0.643879   -0.019454
H      1.707089   -1.411856   -1.316995
H     -1.771298   -1.878689    0.669704
H      3.808977   -2.713391   -1.298570
H     -3.833748   -2.955562   -0.063342
H      3.783577    1.969091    0.164573
H     -3.768544    1.830170    0.840034
H     -1.904615    1.058975   -1.210434
H     -0.663258    2.314887   -1.407983
H      1.845806    0.264078    1.907442
H      0.613444    1.422463    2.483326
H      6.909317   -0.932676    1.499704
H      8.086389   -0.557684    0.131351
H     -8.046175   -0.314306   -0.543400
H     -6.776930   -0.036599   -1.860562
H     -0.025126   -0.373300   -1.214634
H     -0.030821   -0.948974    1.160802
H      1.359703    1.904277   -1.405250
H     -1.467065    0.983199    2.345095
