74

C     -3.824940    4.026523    1.325728
C      3.276190   -2.057495   -1.992350
C      0.864268   -4.090117   -2.272016
C      3.099690    2.547742   -0.247247
C      4.774037    0.951710   -1.194774
C      5.270215    2.202321    0.815650
C     -5.788300   -1.891910   -0.520009
C     -5.320734   -1.605628    1.856795
C      5.086525   -0.857999    1.544036
C      2.978134    0.900044    2.715836
C     -4.460141    3.309393    0.161677
C     -4.003233    1.870824    0.019950
C     -2.622904   -3.027586    0.263824
C     -3.913687   -3.011867    0.487715
C     -1.848404    2.994908   -0.483337
C      1.833095   -1.953037   -1.647994
C      1.271912   -3.220462   -1.073192
C     -2.537554    1.826745   -0.238967
C     -1.863325   -1.822291    0.011066
C     -0.475530    2.865913   -0.712128
C     -1.898618    0.607148   -0.225549
C      0.165776   -0.607399   -0.466708
C      1.650469   -0.740464   -0.709731
C     -0.511936   -1.785109   -0.230001
C     -2.528017   -0.594797    0.004992
C     -0.530219    0.558926   -0.462269
C      4.127853    1.503917    0.044764
C     -4.652461   -1.741567    0.490106
O      0.151657    3.931710   -0.933962
O      0.192052   -2.977537   -0.236427
O      0.077868    1.687788   -0.686915
O     -3.871421   -0.621166    0.242001
O      2.384990   -0.792241    0.370136
Si     3.490760    0.096601    1.081610
H     -2.962118    3.455558    1.709674
H     -3.623871    5.093775    1.121981
H     -4.553331    4.050616    2.193216
H      3.403727   -3.059391   -2.512843
H      3.946656   -2.127891   -1.121988
H      3.554388   -1.250717   -2.680209
H      0.198558   -4.899345   -1.919510
H      0.381866   -3.446504   -3.027328
H      1.818003   -4.462729   -2.704608
H      2.355964    2.542411    0.563678
H      3.603710    3.544919   -0.243949
H      2.645454    2.416925   -1.251039
H      4.038240    0.957349   -2.018917
H      5.682655    1.566761   -1.476666
H      5.112390   -0.082565   -1.016159
H      6.136625    1.523600    0.888849
H      5.559722    3.103786    0.270412
H      4.931894    2.496990    1.824945
H     -5.413029   -1.831533   -1.553215
H     -6.525458   -1.104480   -0.281778
H     -6.242913   -2.881984   -0.328319
H     -5.210804   -0.569226    2.210650
H     -4.884093   -2.331749    2.590165
H     -6.399626   -1.836127    1.818040
H      4.714584   -1.709248    2.186606
H      5.764076   -0.223184    2.119974
H      5.487400   -1.247833    0.590665
H      2.624881    0.128367    3.424426
H      3.912636    1.320530    3.138420
H      2.288549    1.744534    2.560979
H     -4.339920    3.863579   -0.792262
H     -5.559279    3.268558    0.342734
H     -4.613152    1.421780   -0.772942
H     -4.225854    1.442594    1.050704
H     -2.075432   -3.978999    0.262978
H     -4.480995   -3.941987    0.679598
H     -2.303156    3.982306   -0.520169
H      1.265624   -1.732368   -2.574312
H      2.024375   -3.818477   -0.522457
H      1.916987    0.127860   -1.332333
