45

C      4.202557    0.197573   -0.665341
C     -4.636540    1.337781    0.412579
C     -4.554847   -0.199973   -2.053015
C      2.048851   -2.812306   -1.768549
C      4.477891   -0.342866    0.671647
C      3.412374   -1.087575    1.416562
C      2.119297    0.570502    2.724161
C      0.003579   -1.053408   -1.250200
C     -3.373540    0.695874   -0.056066
C     -3.320846    0.521603   -1.556652
C      2.198827   -0.301633    1.622682
C      1.095936   -1.101383   -0.375078
C     -1.047861   -0.197149   -1.036941
C      1.017597    1.362550    2.819623
C      1.151969   -0.283066    0.735569
C     -0.987076    0.603318    0.063233
C     -2.136048    1.533839    0.294510
C      0.075491    0.561432    0.923363
O      0.946066    2.154465    3.818215
O     -2.183215    2.016124    1.578461
O      2.125057   -1.984501   -0.627233
O     -2.141073   -0.148431   -1.916832
O      0.042826    1.361082    1.962834
H      3.255842    0.717344   -0.798797
H      4.293868   -0.578133   -1.471746
H      5.053767    0.909677   -0.925057
H     -4.775029    1.039694    1.493028
H     -4.573536    2.446843    0.435057
H     -5.497588    0.955178   -0.138400
H     -5.316213    0.553666   -2.356330
H     -4.935937   -0.858804   -1.245110
H     -4.320937   -0.804780   -2.935821
H      2.226695   -2.267459   -2.710392
H      1.124675   -3.424336   -1.790167
H      2.893235   -3.557380   -1.681604
H      5.387655   -1.006591    0.655277
H      4.811612    0.485427    1.386004
H      3.920297   -1.234871    2.468221
H      3.289066   -2.088507    1.004333
H      2.937051    0.549052    3.414279
H      0.009681   -1.716774   -2.109262
H     -3.206160   -0.292565    0.450150
H     -3.321691    1.559344   -1.991196
H     -2.062503    2.320852   -0.483882
H     -1.731123    2.889271    1.593884
