32

C      4.617796    0.397845    0.328658
C     -0.243740    1.432845   -2.080154
C     -2.320831   -0.437754    1.871082
C     -2.695307    0.829125   -0.569070
C     -2.496752   -0.355152   -1.488194
C      2.337819    0.771641   -0.657033
C      2.396669   -0.626205    1.159761
C      3.131749    0.213227    0.238822
C     -0.203301    0.514298   -0.885935
C      0.973762    0.310358   -0.362923
C      1.102914   -0.561303    0.790391
C     -0.104121   -1.176915    1.318273
C     -1.420505   -0.950680    0.738579
C     -1.482433   -0.050170   -0.439888
O     -0.014194   -1.941564    2.322232
O     -1.921047   -2.205353    0.318837
H      4.958156    1.006263   -0.523027
H      5.048743   -0.624758    0.321840
H      4.800894    0.931645    1.283324
H      0.140193    2.443720   -1.816686
H     -1.259863    1.550347   -2.464358
H      0.374506    0.972153   -2.876685
H     -3.351714   -0.752756    1.680994
H     -2.296841    0.667629    1.921437
H     -1.974292   -0.897450    2.833700
H     -2.583543    1.858513   -0.950457
H     -3.459036    0.728878    0.241658
H     -3.218003   -1.203618   -1.303364
H     -2.272118   -0.212235   -2.547225
H      2.589766    1.438060   -1.461375
H      2.711159   -1.221463    1.997333
H     -1.866483   -2.849170    1.059451
