41

C     -0.707990    4.697460    0.565266
C     -3.197957    1.408798   -0.890598
C     -0.574700   -3.806676    0.043271
C     -1.923674   -3.953226    0.106405
C      3.226625    1.326488   -0.203480
C      3.742853    0.060643    0.501726
C      1.446647   -2.417027    0.058439
C      0.979076    2.358370    0.126675
C     -2.216931   -1.549794    0.107885
C     -0.024475   -2.511533    0.011523
C      1.758000    1.249616   -0.081789
C     -2.741453   -2.847379    0.139581
C     -0.850767   -1.429614    0.040668
C      1.942058   -1.183233   -0.549390
C     -0.361768    2.288989    0.239098
C      1.142025    0.001229   -0.178854
C     -0.259167   -0.077362   -0.053802
C     -1.015344    1.037309    0.144782
N      3.366341   -1.022094   -0.343554
O     -4.109694   -3.026181    0.205593
O     -1.197527    3.374448    0.447391
O     -2.388077    1.056857    0.258155
H     -0.420357    4.940786    1.627619
H     -1.534365    5.393768    0.289930
H      0.162419    4.903374   -0.066436
H     -4.233707    1.149132   -0.592626
H     -2.906628    0.726433   -1.702860
H     -3.160584    2.471520   -1.112182
H      0.090285   -4.653508    0.016526
H     -2.310164   -4.965833    0.128923
H      3.539576    1.227574   -1.263706
H      3.662297    2.224250    0.233504
H      4.828631    0.141288    0.511013
H      3.274247    0.016310    1.508146
H      1.686379   -2.355493    1.172299
H      1.922334   -3.350699   -0.337381
H      1.447186    3.342501    0.207139
H     -2.942799   -0.796057    0.171061
H      1.856836   -1.272607   -1.697168
H      3.757266   -1.934321   -0.020939
H     -4.752950   -2.244503    0.232144
