18

C     -0.817843   -1.535425   -0.204719
C      0.992704    0.635112    0.790843
C     -1.109455   -0.109834   -0.374813
C     -0.009333    0.856805   -0.284571
O     -2.100758    0.257972    0.564678
O     -0.580247    2.129922   -0.038998
O      3.046674   -0.090433   -0.830339
O      2.855361   -1.213688    1.378722
S      0.845342   -2.045360   -0.678372
S      2.136534   -0.626959    0.212938
H     -1.535946   -2.150337   -0.790625
H     -1.000833   -1.830100    0.867889
H      1.540501    1.596847    0.961818
H      0.524391    0.292502    1.712535
H     -1.617444    0.032948   -1.374034
H      0.532252    0.984894   -1.265206
H     -2.998293    0.167948    0.199075
H     -0.703609    2.647186   -0.846821
