27

C      3.300098   -0.683502    0.544523
C      2.408985    1.500073   -0.084064
C     -1.045236   -0.875145   -1.261655
C     -1.322198    0.518988    0.705997
C      0.385247   -0.440031   -1.194661
C      0.026565    0.153793    1.221012
C     -3.268348   -0.774559   -0.325595
C      2.256684    0.065995    0.239156
C     -1.849654   -0.388538   -0.319617
C      0.902459   -0.550528    0.221608
O     -4.109020    0.349663   -0.459759
H      3.190650   -1.726056    0.779647
H      4.281552   -0.232500    0.556316
H      1.415006    1.998124   -0.084877
H      2.841822    1.640457   -1.093219
H      3.062811    2.009370    0.652723
H     -1.431885   -1.533679   -2.004458
H     -2.025285    0.528961    1.563634
H     -1.308465    1.569118    0.305135
H      0.962486   -1.153032   -1.809027
H      0.538903    0.574314   -1.593528
H     -0.076065   -0.497470    2.135897
H      0.526376    1.077149    1.579005
H     -3.504235   -1.435294   -1.168970
H     -3.522880   -1.244282    0.652923
H      0.971072   -1.630774    0.450525
H     -3.607445    1.179384   -0.208671
