106

C    -13.097650   -0.902931    0.194650
C     12.455187    2.827349   -0.974254
C    -11.756887   -1.378363   -0.316414
C    -11.000529   -0.128879   -0.853084
C    -10.812112    0.854628    0.248107
C    -10.240707    2.139394   -0.097284
C     -8.966819    2.480842   -0.652074
C     -8.411667    2.179850   -1.955259
C     -8.142976    0.845212   -2.476491
C     -7.198637    0.016632   -1.615420
C     -5.893860    0.746574   -1.500780
C      7.257339   -0.202675    0.959566
C      5.900191   -0.387155    1.637913
C      8.088908   -1.376285    1.375656
C     -4.891786    0.005875   -0.680519
C      2.668781   -0.708074   -0.122824
C      1.655463    0.377463   -0.140411
C      4.937290    0.708520    1.359222
C      3.979539   -0.249905   -0.757842
C      9.486693   -1.430109    0.871337
C     -5.381529   -0.221126    0.704562
C      0.367480   -0.030564    0.496090
C     -2.333346   -0.969018    2.877127
C     -1.416336   -1.872214    2.039200
C     11.487003    0.747769   -0.182724
C     11.047333   -1.557291   -1.064170
C     12.690190    1.646145   -0.049145
C     11.859036   -0.381811   -0.735968
C      4.592543    0.923878   -0.073140
C      9.619278   -1.477837   -0.615919
C     -4.426454   -0.940727    1.615059
C     -0.332934   -1.183658   -0.137350
C     -3.118728   -0.252607    1.826827
C     -1.634936   -1.406095    0.646049
C     13.320777   -0.313418   -1.005035
O      5.689490    1.342583   -0.837287
O      9.061240   -0.264489   -1.111360
O     -4.314515   -2.260246    1.184812
O      0.376234   -2.357505   -0.173506
O     13.954838   -1.255438   -1.531219
O     13.752997    0.909125   -0.577987
O     -2.322571   -0.213796    0.685330
H    -13.868253   -1.676405   -0.040423
H    -12.989831   -0.725681    1.288235
H    -13.349643    0.054783   -0.285560
H     13.442770    3.238084   -1.250682
H     11.803439    3.609650   -0.507470
H     11.947802    2.451343   -1.871800
H    -11.882425   -2.033833   -1.221546
H    -11.106773   -1.815370    0.446808
H    -10.005935   -0.589951   -1.138298
H    -11.479682    0.258455   -1.749293
H    -11.865715    0.974217    0.706247
H    -10.284423    0.357447    1.134121
H    -11.090121    2.767717   -0.665504
H    -10.318617    2.769304    0.897838
H     -8.184094    2.279662    0.186865
H     -8.913736    3.659903   -0.590760
H     -7.488698    2.825699   -2.184630
H     -9.144683    2.656373   -2.723666
H     -8.979048    0.273971   -2.909218
H     -7.488394    1.015344   -3.423908
H     -7.015749   -0.924817   -2.195089
H     -7.646572   -0.273072   -0.668658
H     -5.436944    0.939037   -2.512733
H     -6.079127    1.769674   -1.095077
H      7.073428   -0.340631   -0.146146
H      7.754489    0.726352    1.219174
H      6.102695   -0.387796    2.737084
H      5.527044   -1.374024    1.307030
H      7.567990   -2.280370    0.915242
H      8.040689   -1.519615    2.478751
H     -3.959299    0.618742   -0.696444
H     -4.657538   -0.958494   -1.154503
H      2.810831   -1.199815    0.840507
H      2.307626   -1.505014   -0.842510
H      1.443819    0.704670   -1.204883
H      1.994903    1.297370    0.405056
H      4.004758    0.495301    1.922693
H      5.322246    1.664385    1.780338
H      4.667685   -1.096671   -0.710420
H      3.744890    0.026695   -1.794885
H      9.886312   -2.446271    1.268394
H     10.119377   -0.706559    1.385946
H     -6.316501   -0.833274    0.673493
H     -5.658352    0.752800    1.198569
H      0.635221   -0.358962    1.549187
H     -0.334442    0.845739    0.563119
H     -2.940697   -1.535867    3.585207
H     -1.682355   -0.205865    3.396229
H     -0.392164   -1.876155    2.406034
H     -1.785391   -2.930792    2.119408
H     10.516537    1.092033    0.136002
H     11.121705   -1.799786   -2.161185
H     11.521980   -2.435089   -0.549442
H     12.826857    1.918380    0.996720
H      3.895736    1.818805   -0.092896
H      9.051187   -2.269082   -1.097493
H     -4.935404   -1.002784    2.616471
H     -0.653521   -0.873042   -1.156482
H     -3.358016    0.800414    2.115811
H     -2.203775   -2.152000    0.035337
H      5.675464    0.930153   -1.762614
H      9.261354   -0.197959   -2.097512
H     -5.247819   -2.612795    1.121516
H      0.122053   -2.971363    0.584253
