38

C     -0.687196    2.472371   -0.743085
C      3.456835   -0.139344    1.378899
C      3.690799   -0.550347   -1.065860
C     -3.155909   -1.847402   -0.141409
C     -3.123632    0.989011   -1.224684
C     -3.162261    0.950547    0.251817
C      1.777045   -1.395236    0.228336
C     -0.700919    1.017276   -0.443536
C      0.532922   -1.000388    0.060199
C      0.470528    0.417326   -0.237566
C     -0.756005   -1.725750    0.120943
C      1.862350    0.901455   -0.240725
C      2.699801   -0.273857    0.060347
C     -1.897359   -1.148946   -0.609782
C     -2.006709    0.342158   -0.400959
O     -0.803067   -2.791303    0.791776
O      2.059508    1.973185    0.625253
O     -1.703927   -1.352914   -1.980560
H     -1.667610    2.956451   -0.553515
H      0.031058    2.980209   -0.049165
H     -0.417582    2.694583   -1.789961
H      3.746085   -1.195558    1.651004
H      2.737236    0.187166    2.140977
H      4.339999    0.490684    1.290081
H      3.068535   -0.677515   -1.984642
H      4.212742   -1.482976   -0.857119
H      4.316010    0.332031   -1.202350
H     -4.054227   -1.455133   -0.645205
H     -3.058114   -2.920603   -0.315126
H     -3.210720   -1.695399    0.965767
H     -2.888934    1.897915   -1.798178
H     -3.840535    0.322237   -1.745025
H     -3.959297    0.318127    0.738775
H     -3.039427    1.910478    0.812666
H      2.097933   -2.420990    0.462914
H      2.111011    1.255288   -1.269366
H      2.916121    1.940793    1.105721
H     -1.993090   -2.275632   -2.219532
