54

C     -0.246212   -3.098070   -1.634097
C      6.322275   -0.753405   -0.460783
C      3.014947    3.700080   -0.987879
C     -1.887567    3.504233    0.062104
C     -3.247350   -1.908178   -0.122901
C     -4.486421   -1.754116    0.464116
C      1.834331   -2.521304    0.006252
C      0.427736   -2.566095    0.608688
C      3.550785   -0.978488   -0.304728
C      1.928219    1.188014   -0.560815
C     -5.843476    1.230490    2.101274
C      2.180623   -1.118271   -0.223353
C     -2.296795   -0.908405   -0.034425
C      1.339371   -0.043275   -0.348891
C     -4.833167   -0.609283    1.159375
C      4.119836    0.248554   -0.515192
C      3.296072    1.341135   -0.644065
C     -2.644792    0.219587    0.653386
C     -0.955946   -1.018866   -0.646151
C     -0.121272    0.115589   -0.306080
C     -3.892449    0.386984    1.250321
C     -1.648663    1.317368    0.774993
N     -0.481313   -2.334178   -0.434336
O      5.495941    0.390045   -0.597120
O      3.861225    2.580591   -0.856126
O     -1.637266    2.181282   -0.284345
O     -5.961109   -0.168054    1.838733
O     -4.446778    1.430068    1.982441
O     -0.415203    0.646622    0.960656
H     -1.207346   -3.260845   -2.153050
H      0.156472   -4.081292   -1.377777
H      0.416015   -2.494594   -2.299620
H      6.131464   -1.257721    0.505841
H      6.004736   -1.476241   -1.251844
H      7.379055   -0.518205   -0.589048
H      2.254206    3.551794   -1.788801
H      2.428202    3.804780   -0.033015
H      3.603993    4.632977   -1.165989
H     -1.846147    4.085132   -0.896347
H     -1.122888    3.939045    0.724186
H     -2.929867    3.653809    0.436657
H     -3.018200   -2.807114   -0.650842
H     -5.237986   -2.523373    0.404367
H      2.561392   -3.031592    0.677038
H      1.863167   -3.042372   -0.973992
H      0.333701   -3.562393    1.075950
H      0.347462   -1.740759    1.355817
H      4.226950   -1.825291   -0.206443
H      1.342020    2.091080   -0.671522
H     -6.424242    1.747785    1.319577
H     -6.209415    1.498036    3.108920
H     -1.173941   -0.971114   -1.763829
H     -0.337973    0.970861   -1.016585
H     -1.866413    1.916954    1.700034
