30

C     -1.688397   -2.171797    0.458021
C      3.073515    1.381712    0.014033
C     -2.277466    1.509699    0.425515
C     -1.049699    2.249297    0.186197
C     -2.323257    0.111328   -0.066273
C      0.176906    1.904179   -0.116505
C      2.327683   -1.086249   -0.502923
C      0.989088   -1.747376   -0.286219
C     -1.183877   -0.747194    0.352870
C      2.021328    0.344212   -0.260559
C      0.718016    0.581567   -0.318828
C     -0.013361   -0.685353   -0.612550
H     -1.943199   -2.526855   -0.560242
H     -2.613501   -2.130077    1.089598
H     -0.978776   -2.840414    0.975073
H      4.029637    0.908632    0.270662
H      2.779432    2.001669    0.895726
H      3.216020    2.007976   -0.886926
H     -3.109473    2.069152   -0.097912
H     -2.576238    1.536374    1.502135
H     -1.168776    3.335452    0.277199
H     -3.262464   -0.349705    0.351387
H     -2.473384    0.049144   -1.182861
H      0.897827    2.727348   -0.234099
H      2.735217   -1.269577   -1.514239
H      3.048251   -1.418383    0.288936
H      0.933523   -2.008803    0.801465
H      0.861831   -2.642583   -0.927978
H     -0.811506   -0.404840    1.342111
H     -0.334899   -0.688533   -1.662812
