57

C     -4.163517    0.938538    3.831761
C     -3.992003   -1.050409   -3.095617
C     -6.601781    1.509948   -0.146968
C      4.102699   -0.391194   -1.873984
C      5.449515   -0.610190   -2.049697
C      1.936294   -0.723808   -0.765091
C     -0.563713   -0.508662    0.597926
C      4.026533   -1.889092   -0.042082
C     -2.796276    0.107059    1.613954
C     -2.713283   -0.547893   -0.653313
C      2.393318    1.678943   -0.324037
C     -0.216144    1.886347    1.004748
C      7.614109   -2.556447    0.147781
C      3.389962   -1.017461   -0.885673
C     -2.049999   -0.309324    0.535577
C      1.696699    0.457022    0.168493
C      0.178019    0.726189    0.125794
C      6.098601   -1.492008   -1.197903
C      5.375432   -2.117413   -0.207227
C     -4.152096    0.281854    1.520904
C     -4.072281   -0.387089   -0.797385
C     -4.771282    0.034109    0.322721
O      2.200375    2.729448    0.549186
O      0.102853    1.690045    2.337652
O     -4.859028    0.700450    2.627679
O     -4.750825   -0.623673   -1.987266
O     -6.139023    0.212787    0.237136
O      7.439212   -1.915367   -1.125043
O      6.282527   -2.943825    0.493449
H     -3.413797    1.756890    3.695676
H     -4.886171    1.192668    4.632670
H     -3.609686    0.028499    4.105109
H     -3.132264   -0.388968   -3.311272
H     -4.600383   -1.102601   -4.023893
H     -3.572837   -2.076526   -2.943559
H     -7.706713    1.484082   -0.220270
H     -6.139450    1.799321   -1.114768
H     -6.309784    2.279408    0.588499
H      3.639973    0.316949   -2.577137
H      6.023127   -0.111479   -2.838685
H      1.557482   -0.468641   -1.762496
H      1.496656   -1.620972   -0.297784
H     -0.315409   -0.799897    1.627509
H     -0.388958   -1.340031   -0.145502
H      3.489920   -2.413002    0.765215
H     -2.288420    0.300066    2.560772
H     -2.149253   -0.880649   -1.532009
H      1.987141    2.005028   -1.305710
H      3.490256    1.549188   -0.430426
H      0.044732    2.877854    0.601299
H     -1.362708    1.872470    0.991749
H      8.004509   -1.785392    0.838355
H      8.276888   -3.405625   -0.014931
H      1.978065    0.185372    1.178596
H     -0.158521    0.940847   -0.903866
H      3.045059    3.098594    0.914470
H      0.555652    0.837666    2.490592
