38

C     -2.685048    2.555306   -0.325385
C     -2.313424   -2.071967    0.766331
C      3.264911    1.666773    0.752040
C      1.914276    1.437374    1.046167
C      3.976160    0.799094   -0.073646
C     -0.846412    1.327819    0.730100
C      0.139058   -2.000188   -0.669985
C      2.609977   -2.153647   -1.617541
C     -2.877804    0.086885   -0.104678
C     -2.303079    1.311762    0.488139
C      1.548009   -1.630202   -0.908886
C      1.315524    0.331491    0.494972
C     -0.130866    0.021516    0.740475
C      3.361719   -0.316039   -0.625305
C     -0.663573   -0.782400   -0.426332
C      2.043971   -0.498877   -0.310222
N      3.684171   -1.334893   -1.422171
N     -2.055145   -1.046562   -0.191675
H     -3.684185    2.941286    0.004411
H     -1.962149    3.374149   -0.091813
H     -2.768287    2.340453   -1.393361
H     -2.044086   -3.080585    0.397980
H     -1.793060   -1.848397    1.727099
H     -3.392378   -2.085315    1.004752
H      3.747700    2.532137    1.178517
H      1.421265    2.127119    1.679738
H      5.021540    0.958694   -0.313817
H     -0.569188    1.851495    1.685556
H     -0.353586    1.964425   -0.064688
H      0.151421   -2.651354    0.254784
H     -0.251213   -2.590671   -1.522021
H      2.575637   -3.046562   -2.210217
H     -3.227610    0.346515   -1.149332
H     -3.836376   -0.213349    0.415115
H     -2.805429    1.477906    1.488739
H     -0.254637   -0.510726    1.713440
H     -0.597023   -0.126965   -1.319356
H      4.639217   -1.463501   -1.827922
