68

C     -1.542723   -4.669708   -1.658240
C     -1.012949   -3.696577   -3.882529
C     -2.960150    6.290046    0.008343
C      6.115429    1.376884   -1.709223
C      4.430460   -0.491278    2.586375
C     -3.735769   -1.588286    3.499388
C     -2.965567   -0.457003    3.477028
C     -3.893286   -2.379642    2.386781
C     -2.332224   -0.122908    2.281510
C     -3.232529   -1.997086    1.211775
C      0.138377    2.616044    0.554326
C     -2.027323    2.212648   -0.160260
C     -0.138880    3.958656    0.624812
C     -2.350623    3.558611   -0.101224
C      4.049971    0.478700   -0.165688
C      2.468063    0.897638   -1.962575
C     -2.442886   -0.870244    1.134149
C     -0.808014    1.705640    0.153225
C     -1.403471    4.446711    0.291160
C      3.759808    0.916257   -1.457170
C      3.041206    0.018391    0.625305
C      1.437310    0.433204   -1.176136
C     -1.065225   -1.946243   -0.473999
C     -1.731891   -0.592903   -0.118394
C      1.757557    0.010364    0.091237
C      0.277732   -1.864811    0.166794
C     -1.061028   -2.246063   -1.894747
C      0.467026   -0.427529    0.696635
C     -0.559869    0.290482   -0.026894
N     -1.219324   -3.517442   -2.432436
O      1.236888   -2.215731   -0.751762
O     -0.896120   -1.325845   -2.744552
O      0.560612   -0.390953    2.043054
O     -1.682798    5.798486    0.357442
O      4.807367    1.371216   -2.222832
O      3.220561   -0.433308    1.903305
O      0.060721    0.282388   -1.370162
H     -2.128403   -4.475588   -0.727191
H     -2.259783   -5.302811   -2.301738
H     -0.690476   -5.340781   -1.396876
H     -0.130300   -3.096058   -4.229855
H     -0.880830   -4.765702   -4.094292
H     -1.944116   -3.344071   -4.386082
H     -3.191666    5.844680   -1.011994
H     -2.929158    7.419916   -0.105054
H     -3.756816    5.945389    0.685639
H      6.376953    0.327735   -1.384517
H      6.122268    1.994090   -0.781449
H      6.854715    1.768877   -2.461933
H      4.650330   -1.587807    2.763929
H      4.343089    0.021581    3.586414
H      5.250714   -0.050751    2.017452
H     -4.215826   -1.840517    4.444369
H     -2.824378    0.182430    4.348215
H     -4.511170   -3.270098    2.449256
H     -1.753177    0.755820    2.249333
H     -3.443667   -2.669608    0.372426
H      1.156749    2.322628    0.829414
H     -2.828986    1.544787   -0.473696
H      0.584988    4.709974    0.934155
H     -3.349754    3.922059   -0.356029
H      5.057558    0.501973    0.189125
H      2.274653    1.255082   -2.982707
H     -1.592358   -2.782075    0.082969
H     -2.368053   -0.398472   -0.998095
H      0.392477   -2.548511    1.046264
H      1.895305   -2.872157   -0.407461
H      1.072677    0.399177    2.316184
