48

C     -0.588563   -3.213126    1.410636
C     -1.407334   -3.318154    0.162860
C     -3.905274    1.455697    0.453210
C      0.112631   -1.851976    1.531479
C     -3.144812    0.428810   -0.067816
C     -3.365572    2.343737    1.383997
C      4.536638    2.263022   -0.806608
C      4.512160    0.829271   -0.318373
C     -2.082029   -2.051289   -0.228060
C     -0.958394   -0.491542   -1.790468
C      0.059433    0.567271   -1.961237
C     -1.317985    1.126100    1.228309
C      2.220734    1.388982   -1.444575
C      1.328981   -0.359521   -0.120711
C      3.257742    1.603589   -0.359647
C     -1.816207    0.248173    0.320870
C      0.192328   -1.295339    0.144496
C     -2.057720    2.177676    1.777160
C     -1.129985   -0.858044   -0.308148
N      1.020381    0.753557   -0.942605
O     -1.478933    3.036889    2.701038
H      0.206636   -4.000432    1.381851
H     -1.213110   -3.420587    2.303672
H     -2.196963   -4.058198    0.381160
H     -0.832617   -3.799225   -0.668870
H     -4.932283    1.622940    0.176463
H      1.126968   -1.984635    1.997778
H     -0.496994   -1.266368    2.230950
H     -3.638240   -0.215019   -0.794670
H     -3.907957    3.164299    1.830794
H      4.715795    2.385793   -1.894925
H      4.899414    3.068179   -0.138623
H      4.774047    0.023241   -1.029300
H      4.991002    0.680667    0.669333
H     -2.640380   -2.208784   -1.161272
H     -2.870566   -1.880478    0.564951
H     -0.728765   -1.431012   -2.320302
H     -1.949190   -0.174232   -2.147084
H     -0.460195    1.557335   -2.118413
H      0.603934    0.389878   -2.929263
H     -0.309504    1.011711    1.535695
H      2.003078    2.323710   -1.986964
H      2.691334    0.703280   -2.189507
H      1.736319   -0.008572    0.853314
H      2.207557   -0.878358   -0.593416
H      2.820963    1.919018    0.609103
H      0.419668   -2.201115   -0.503877
H     -1.008173    3.893181    2.431226
