36

C     -0.956491   -1.139467   -1.030588
C     -2.102994   -1.932324   -1.184251
C      2.380154   -0.719989    1.812590
C      2.344036   -0.299231   -0.882602
C      0.148876    0.712864    1.886559
C     -1.310017    2.548020    0.955496
C      1.346834    0.024815    1.283782
C     -1.027603    0.161961   -0.590774
C      1.352538    0.221861   -0.078191
C     -3.334929   -1.401078   -0.889217
C      3.384569   -1.249575    1.008739
C      3.381005   -1.046619   -0.351665
C      0.158182    1.038058   -0.415674
C     -3.391310   -0.101747   -0.451505
C     -2.261231    0.690453   -0.296368
C     -0.018422    1.835316    0.852472
O     -4.478759   -2.153476   -1.029725
O      4.419036   -2.000283    1.572562
O      4.398279   -1.588143   -1.130258
O     -4.624033    0.456940   -0.147571
O      1.091808    2.667908    1.024298
O     -2.347919    2.015167    0.152965
H      0.029189   -1.533698   -1.256414
H     -1.961900   -2.945658   -1.534923
H      2.410669   -0.897585    2.883110
H      2.351273   -0.143980   -1.966770
H     -0.718610    0.039181    1.899043
H      0.375516    1.183990    2.840718
H     -1.703479    2.537608    2.005086
H     -1.177315    3.620202    0.690142
H      0.332653    1.683104   -1.300141
H     -4.507545   -3.101948   -1.342542
H      5.146556   -2.385163    0.999087
H      4.456012   -1.479304   -2.120791
H     -4.731093    1.390117    0.173177
H      1.146468    3.291702    0.249746
