19

C      0.562740    0.286528   -0.851576
C      2.058601   -0.122146    1.022574
C      0.713371   -0.147555    0.390686
C     -0.700945    0.314416   -1.583850
C     -0.462602   -0.635925    1.087546
C     -1.816492   -0.451908   -0.981025
C     -1.762395   -0.748923    0.431806
O      2.989529    0.384216    0.149348
O     -1.113168    1.664777   -1.646212
O     -0.354164   -0.970513    2.291645
O     -1.685329   -1.784121   -0.632563
H      1.451327    0.646115   -1.353594
H      2.337941   -1.199873    1.206004
H      2.060860    0.350929    2.017747
H     -0.485583    0.037120   -2.646827
H     -2.822562   -0.205639   -1.402700
H     -2.692247   -0.796360    1.014136
H      2.923202    1.347160   -0.001245
H     -1.202084    2.031702   -0.731660
