36

C      4.156166    0.392779   -0.750277
C     -1.540782   -2.709693   -0.168441
C     -0.917757    1.398922    1.574221
C      1.380196    1.684979   -0.468286
C     -3.234046    0.210135   -0.009340
C     -0.108817    1.924742   -0.657058
C     -2.360694    1.141109   -0.354190
C      2.999723   -0.219823   -0.594448
C     -1.433353   -1.412783    0.642091
C      1.630285    0.261938   -0.796775
C     -2.829438   -0.923594    0.810596
C     -0.562283   -0.448576   -0.077434
C      0.897546   -0.568955    0.272913
C      2.834686   -1.611678   -0.154212
C     -0.967302    0.983039    0.124471
O     -3.631842   -1.439068    1.605144
O      3.758651   -2.451883    0.005940
O      1.454894   -1.826000    0.053295
H      5.079438   -0.124728   -0.552113
H      4.217807    1.417128   -1.076387
H     -0.671908   -2.746720   -0.833794
H     -2.451296   -2.676924   -0.804389
H     -1.588396   -3.577574    0.505209
H      0.100937    1.477892    1.960098
H     -1.501139    0.753714    2.235174
H     -1.366152    2.418140    1.627063
H      1.919979    2.392295   -1.104530
H      1.670450    1.856872    0.591750
H     -4.277127    0.298930   -0.348723
H     -0.391050    2.966644   -0.471892
H     -0.302808    1.705874   -1.748370
H     -2.677384    1.979090   -0.965128
H     -0.980701   -1.695519    1.607198
H      1.213483   -0.018692   -1.789191
H     -0.646273   -0.657584   -1.169824
H      1.126307   -0.154430    1.279638
