36

C      4.131699   -0.507739   -0.197135
C     -1.106587    2.599655   -0.882071
C     -1.126969   -0.420526    1.895727
C      1.380720   -1.563938    0.622779
C     -3.242232   -0.461474   -0.299717
C     -0.052877   -2.077358    0.477229
C     -2.366927   -1.382591    0.068536
C      2.963979   -0.047945   -0.589662
C     -1.510118    1.376699   -0.098742
C      1.630116   -0.684597   -0.539460
C     -2.889743    0.960996   -0.329671
C     -0.631798    0.176195   -0.484473
C      0.776858    0.580331   -0.329714
C      2.708421    1.255898   -1.191863
C     -1.011673   -0.928606    0.451937
O     -3.782852    1.798685   -0.553964
O      3.597787    2.098688   -1.527675
O      1.306162    1.399000   -1.327659
H      5.016694    0.101361   -0.310563
H      4.274283   -1.483119    0.245266
H     -1.919031    3.356254   -0.721588
H     -0.167201    2.985306   -0.437064
H     -0.922491    2.397663   -1.950958
H     -1.091336   -1.328088    2.550789
H     -0.263421    0.221222    2.100412
H     -2.103355    0.047517    2.076506
H      1.452190   -0.956405    1.552554
H      2.090001   -2.396148    0.674047
H     -4.248458   -0.760471   -0.588087
H     -0.294716   -2.684860    1.390017
H     -0.111544   -2.681956   -0.429039
H     -2.610438   -2.422047    0.094807
H     -1.325948    1.596596    0.974689
H      1.321778   -1.111020   -1.515053
H     -0.869776   -0.090565   -1.517813
H      0.998803    1.037389    0.646675
