33

C      4.374680   -0.288690   -1.092311
C     -1.511182    0.748374    0.560675
C     -0.722718   -0.884572   -0.926261
C      1.944843    0.139941   -0.615722
C     -3.969178    0.287782    0.442457
C      3.259233    0.133109   -0.204319
C     -2.687467    0.357298   -0.352447
C     -0.373731    0.484233   -0.352380
C     -2.226043   -1.017782   -0.793214
C      3.498987    0.544555    1.098036
C      1.193996    0.921119    1.460828
N      2.476968    0.924424    1.892039
N      0.929073    0.530460    0.212023
O     -3.897184   -0.647320    1.460791
O     -2.822657   -1.405188   -1.989459
O      4.812694    0.546725    1.535975
O      0.237545    1.270833    2.186774
H      5.302452    0.306986   -0.881200
H      4.631249   -1.354312   -0.928926
H      4.143154   -0.111683   -2.165994
H     -1.563786    0.017754    1.398965
H     -1.618459    1.800606    0.888612
H     -0.381426   -0.927139   -1.978559
H     -0.201486   -1.691085   -0.336463
H      1.738808   -0.179887   -1.634525
H     -4.767992   -0.003579   -0.257249
H     -4.190307    1.302396    0.801150
H     -2.813512    1.062135   -1.174887
H     -0.411830    1.189641   -1.204339
H     -2.509810   -1.715951    0.034273
H     -3.746154   -0.189627    2.329384
H     -3.146262   -2.334263   -1.867292
H      5.017502    0.182706    2.453566
