55

C      0.644708    3.925665    2.038112
C     -3.396478    0.216495    0.173688
C      0.416751    1.250301   -2.033875
C      3.881822    1.252932    1.820707
C     -3.130536   -2.410231   -0.421413
C     -4.096675   -2.584216    0.779993
C     -1.579140   -0.130184    1.894498
C      2.727925   -1.854558   -3.395260
C      2.915953   -0.230878    0.393117
C     -0.235382    2.949368    1.389817
C      2.637211   -0.708897   -2.653655
C     -1.957259   -1.832071    0.303120
C     -0.762728    0.624158    0.820137
C     -3.614396   -1.630449    1.809026
C      2.135372    0.809136   -0.327313
C     -0.791983   -1.432105   -0.436539
C      1.504146   -0.869533   -1.896414
C     -0.187441   -0.248595   -0.212965
C     -0.257452   -2.403917   -1.428451
C      0.946926   -2.064888   -2.165736
C      3.431746    0.495057   -2.415117
C     -2.680778   -0.751042    1.083569
C      0.961160    0.182272   -1.014813
O     -1.277903    3.283342    0.777029
O     -3.907983   -1.577176    2.964249
O     -0.828917   -3.500515   -1.632173
O      4.465120    0.673930   -3.092571
O      4.088893    0.255873    0.899094
O      1.705101   -2.652737   -3.086631
O      0.044019    1.566305    1.419384
O      2.953805    1.352185   -1.432467
H      0.112119    4.871358    2.213812
H      0.961698    3.530075    3.045680
H      1.573596    4.132195    1.454836
H     -3.557184    1.162842    0.723007
H     -4.439933   -0.210052    0.056156
H     -2.981888    0.309249   -0.828792
H     -0.553074    0.922597   -2.422225
H      0.385032    2.232758   -1.548912
H      1.121250    1.314958   -2.888901
H      3.248676    0.833750    2.635158
H      4.865228    1.612278    2.253540
H      3.406335    2.161321    1.447242
H     -3.589708   -1.723646   -1.146831
H     -2.980919   -3.397731   -0.860807
H     -5.120304   -2.301141    0.443356
H     -4.062507   -3.625276    1.098058
H     -1.907846    0.635712    2.599590
H     -0.950882   -0.921843    2.302201
H      3.520712   -2.036909   -4.104784
H      3.192906   -1.070484   -0.306920
H      2.334585   -0.677145    1.243179
H     -1.707983   -2.613222    1.104554
H     -1.588010    1.222406    0.298794
H      1.962492    1.680925    0.268863
