31

C     -3.977005    0.397625    0.319275
C      2.633395   -0.265376    1.546919
C     -2.495994    0.538533    0.549513
C      0.270838    0.668121   -0.347350
C      2.323787    1.387962   -1.611794
C      0.216712   -1.786059   -0.396239
C      3.920538    0.731313   -0.290138
C     -0.226814   -0.534324    0.383793
C      1.727616    0.773188   -0.502838
C     -1.731434   -0.686996    0.142963
C     -1.712624   -0.914521   -1.315904
N      3.643226    1.338204   -1.438575
N      2.721878    0.387800    0.278157
O     -2.555489   -0.566360   -2.168525
O     -0.551645   -1.610292   -1.595546
H     -4.216038    0.555656   -0.753902
H     -4.387293   -0.523426    0.740610
H     -4.464889    1.264418    0.852130
H      2.316818   -1.310349    1.482006
H      2.019442    0.334407    2.280439
H      3.645658   -0.312403    2.058100
H     -2.325402    0.696138    1.634093
H     -2.161002    1.450869    0.033183
H     -0.256879    0.736359   -1.348618
H     -0.146902    1.583180    0.183634
H      1.826668    1.829235   -2.464221
H     -0.174231   -2.682151    0.114852
H      1.290773   -1.797996   -0.602756
H      4.889882    0.521984    0.158118
H      0.027039   -0.601596    1.434107
H     -2.090628   -1.603144    0.620309
