44

C     -0.403023    1.704741   -1.976261
C      2.231147   -2.588884    1.719216
C      4.911561    0.375006    0.148347
C     -1.679596    1.611594    0.775953
C     -3.067410    0.352298   -1.411496
C     -3.956373    0.198002   -0.173935
C      0.646954   -0.472970   -1.718782
C     -0.685831    0.246193   -1.888499
C      1.318733   -1.635032    1.714905
C      3.449905    0.502405    0.099016
C     -1.727133   -0.189086   -0.971297
C      1.202445   -0.305730   -0.322831
C     -3.048784   -0.337864    0.871839
C      0.452572   -1.263871    0.564447
C     -0.707505   -0.638430    1.285182
C      0.935787   -0.732519    2.790486
C     -1.674596    0.120797    0.456856
O      2.938252    1.603979    0.445972
O     -3.399125   -0.995708    1.828771
O      1.409291   -0.745963    3.971737
O      2.589995   -0.509090   -0.304389
O     -0.042576    0.140301    2.274399
H      0.336652    1.834565   -2.825410
H      0.085661    2.150448   -1.107496
H     -1.294983    2.296802   -2.335045
H      2.428858   -3.197572    0.857711
H      2.823935   -2.798976    2.600788
H      5.275053    0.640358    1.175167
H      5.340100    1.175950   -0.512982
H      5.221904   -0.621633   -0.165831
H     -2.389001    1.840780    1.628788
H     -2.077103    2.197142   -0.072917
H     -0.699087    1.966932    1.148510
H     -3.063541    1.408064   -1.672835
H     -3.504999   -0.239788   -2.237458
H     -4.822881   -0.440730   -0.367753
H     -4.319032    1.180283    0.188017
H      0.548630   -1.557775   -1.926138
H      1.351087    0.013657   -2.435296
H     -1.020130   -0.060749   -2.930018
H     -1.820513   -1.310567   -1.064952
H      0.991010    0.707206    0.012752
H      0.098007   -2.142014   -0.005488
H     -1.184316   -1.482552    1.868252
