53

C     -0.010840   -3.234659   -0.662087
C     -4.803132    2.514660    1.538460
C     -5.105080   -1.528141   -0.745863
C      3.935874   -0.074314   -2.401109
C     -1.106057    1.244633    0.067722
C     -2.346799    1.665469    0.555373
C      0.770111   -1.026819    2.193136
C      0.908452   -2.316699    1.370080
C      2.448880    0.830270    2.227667
C      4.978833    3.138519    1.008053
C      1.708259   -0.082996    1.513846
C     -1.014701    0.287046   -0.906827
C     -3.517969    1.126031    0.066457
C      3.312399    1.694334    1.587969
C      1.837166   -0.130993    0.119818
C     -2.182208   -0.262274   -1.407517
C      1.083188   -1.082966   -0.722311
C      0.092155   -0.360513   -1.597617
C     -3.396803    0.166121   -0.913004
C      3.440548    1.648435    0.217322
C      2.707983    0.741092   -0.517446
C     -1.858939   -1.230854   -2.439410
N      0.569949   -2.139227    0.026649
O     -2.666615   -1.903264   -3.089135
O     -4.782779    1.521692    0.530480
O     -4.589307   -0.374942   -1.402740
O      2.903944    0.768257   -1.890521
O      4.149889    2.682644    2.068651
O      4.376319    2.629894   -0.145122
O     -0.489490   -1.247862   -2.545584
H      0.399557   -4.179278   -0.196140
H      0.370952   -3.250358   -1.703512
H     -1.102782   -3.325646   -0.583457
H     -4.377139    3.481161    1.178873
H     -5.831520    2.643322    1.940741
H     -4.147113    2.176022    2.370074
H     -5.560986   -1.276793    0.225412
H     -5.840607   -2.045173   -1.376897
H     -4.292630   -2.271466   -0.530931
H      4.863688    0.496353   -2.615572
H      3.575442   -0.637780   -3.299113
H      4.224293   -0.860438   -1.665373
H     -0.257683    1.737969    0.517202
H     -2.411351    2.424605    1.327836
H      1.182693   -1.211990    3.204473
H     -0.259881   -0.663266    2.198320
H      0.342105   -3.133678    1.811969
H      2.006690   -2.570522    1.439514
H      2.329225    0.847576    3.321322
H      4.947641    4.254648    0.944402
H      6.025206    2.845872    1.144585
H      1.816518   -1.537235   -1.463935
H      0.644451    0.393523   -2.187307
