46

C     -8.248038    0.308813   -0.260872
C      8.272240   -0.857729    0.236352
C     -6.273029   -1.236966   -0.305751
C     -5.932235    1.036834    0.222251
C      6.272054   -1.238982   -1.245818
C      6.024682   -0.020341    0.752311
C     -4.901382   -1.469065   -0.159482
C     -4.561273    0.801952    0.367837
C      4.928763   -1.088912   -1.541341
C      4.689145    0.132761    0.465208
C     -6.784602    0.019434   -0.113608
C      6.840863   -0.716254   -0.110308
C     -4.038059   -0.452244    0.177816
C      4.124713   -0.393785   -0.675076
C     -0.319339    0.020724    0.806731
C      0.518101    0.728287   -0.229214
C      0.169908    0.243313    2.191610
C      0.161752    2.157451   -0.391318
C     -2.610374   -0.738542    0.320594
C      2.697303   -0.189542   -0.911929
O      1.381738    0.094631    2.499628
O     -0.654986    0.627026    3.241965
O      1.006757    3.092763   -0.378533
O     -1.154414    2.567277   -0.571643
O     -2.148880   -1.877644    0.146013
O      2.128984   -0.650302   -1.940375
O     -1.682311    0.232197    0.657395
O      1.875643    0.501463   -0.060094
H     -8.430807    1.374602   -0.460204
H     -8.634079   -0.313629   -1.120043
H     -8.798135   -0.013667    0.634103
H      8.640861   -1.800314   -0.214264
H      8.333231   -0.935137    1.356751
H      8.792858    0.032653   -0.140802
H     -6.959620   -2.029826   -0.570665
H     -6.356141    2.030572    0.371470
H      6.915993   -1.781403   -1.914965
H      6.454459    0.406394    1.665040
H     -4.585317   -2.491480   -0.330122
H     -3.907535    1.606299    0.630497
H      4.501742   -1.510339   -2.443800
H      4.105457    0.696396    1.195758
H     -0.156951   -1.062939    0.601262
H      0.249278    0.233990   -1.191907
H     -0.488734    0.393454    4.201872
H     -1.460285    3.529756   -0.362696
