22

C      1.220724    1.697188    0.652347
C     -2.132275   -0.755849   -0.464297
C     -0.082085    1.951376    0.930716
C     -2.143090    0.239319    0.630509
C      2.508574   -0.279568   -0.476066
C      1.302219    0.454594    0.072765
C     -0.732437   -1.244517   -0.500643
C      0.029604   -0.050299    0.002319
N     -0.826596    0.843126    0.523985
O      3.224560   -0.649974    0.725789
O     -0.367691   -1.424117   -1.867147
H      2.064223    2.332972    0.841396
H     -2.373721   -0.222453   -1.423639
H     -2.874336   -1.593310   -0.313768
H     -0.520589    2.866670    1.382164
H     -2.963035    0.891306    0.759497
H     -2.045962   -0.432202    1.589295
H      2.251021   -1.121914   -1.018195
H      3.170380    0.517880   -0.939946
H     -0.606318   -2.093215    0.120832
H      2.536340   -1.381755    1.087563
H     -0.639508   -0.545259   -2.315473
