75

C      0.152687   -1.834329    3.370799
C      7.644454    3.847096   -0.142576
C     -8.138935    1.650061    0.086663
C     -4.712658   -0.509857   -3.724275
C      1.227317   -1.263646    2.516643
C      4.982479    3.158486   -0.937115
C      3.721411    2.747208   -1.306865
C      4.100312   -2.178493   -0.805988
C     -3.765161    0.570891    2.658873
C      3.459059   -3.127926   -1.738599
C     -2.347351    1.087339    2.643152
C      0.890553   -2.292287   -0.485943
C     -1.168015   -0.876564   -0.293199
C     -5.560084    0.851374    0.898224
C      5.553984    0.843132   -0.574814
C     -3.835189   -0.233437   -1.004300
C     -0.176925    0.654706    1.704454
C      0.683386   -0.491859    1.295512
C     -4.297708    0.450342    1.252331
C      0.046668   -1.471486    0.395993
C      5.891694    2.177733   -0.571102
C      3.646951   -0.800016   -1.054932
C     -3.444817   -0.086455    0.310592
C      4.296260    0.428770   -0.943297
C      3.399053    1.407689   -1.305351
C      1.479295   -1.710801   -1.699906
C     -2.111874   -0.487459    0.806732
C     -5.925459    0.693593   -0.422031
C     -5.104717    0.162371   -1.394597
C      2.371764   -0.558393   -1.480072
N      2.246014   -2.765839   -2.365282
N      2.245480    0.782791   -1.624576
N     -1.570419    0.513720    1.610171
O      7.164845    2.521128   -0.192248
O     -7.199902    1.087890   -0.826123
O     -5.548412    0.032688   -2.723310
H     -0.709954   -1.148542    3.406050
H      0.587082   -1.952179    4.407281
H     -0.123619   -2.866486    3.068861
H      7.845561    4.209974   -1.171284
H      8.566159    3.917886    0.465817
H      6.849825    4.491381    0.308755
H     -9.107852    1.734635   -0.431558
H     -8.226466    0.984742    0.984178
H     -7.831479    2.639907    0.439073
H     -3.659606   -0.168385   -3.645435
H     -5.040797   -0.156306   -4.744920
H     -4.728488   -1.606650   -3.757498
H      1.863486   -0.560244    3.103855
H      1.893250   -2.044999    2.094447
H      5.257436    4.213813   -0.931686
H      2.975014    3.471525   -1.600885
H      5.228538   -2.258770   -0.990826
H      4.032929   -2.456041    0.275472
H     -4.408418    1.334283    3.143750
H     -3.878200   -0.380152    3.186870
H      4.196058   -3.458033   -2.514275
H      3.281477   -4.087830   -1.146610
H     -1.929012    0.930201    3.645088
H     -2.400195    2.196135    2.487328
H      0.282496   -3.216818   -0.744679
H      1.711581   -2.727514    0.153028
H     -1.651067   -1.703767   -0.867821
H     -0.840595   -0.039186   -0.912448
H     -6.220311    1.270365    1.644375
H      6.290201    0.115934   -0.283455
H     -3.160107   -0.654539   -1.734015
H      0.081858    0.879187    2.782404
H      0.118683    1.605569    1.167380
H      1.604766   -0.061365    0.853795
H     -0.446589   -2.237441    1.114907
H      0.693843   -1.448803   -2.484633
H     -2.278708   -1.414224    1.422036
H      1.624777   -3.567173   -2.613318
H      1.360407    1.239752   -1.942617
