85

C      6.377105   -1.377244   -1.264295
C     -2.469272    0.922500   -2.747439
C      0.350207   -1.241063    4.174848
C     -5.756751   -4.348441   -1.607311
C     -1.266618   -4.333467   -1.266500
C      3.883478    1.860884    0.027722
C      2.508286    2.101323   -1.866923
C     -2.014039    2.960149    2.615017
C      3.146178    2.910536    0.669728
C      1.788744    3.154890   -1.196196
C     -1.059594    3.565310    3.406813
C      4.530012   -1.283069    1.749489
C     -5.199628    0.631393   -1.326778
C      5.294364   -2.091853    0.700351
C     -4.434818    1.812467   -1.886354
C      4.225551    0.278977   -1.832858
C     -3.039690    1.969245    0.687353
C     -0.882122    3.416804    0.544554
C      2.140899   -1.185664    2.157916
C     -4.801285   -1.775750   -1.208582
C      1.465874   -1.094798   -0.531998
C      3.542433    1.462136   -1.245272
C     -1.941165    2.876162    1.222024
C      3.129477   -1.149758    1.182203
C     -4.282930   -0.519983   -0.995477
C      2.125329    3.519537    0.055995
C      2.818526   -1.099186   -0.194031
C      4.003912   -1.047931   -1.092489
C     -2.643517    1.109218   -0.423384
C      0.027548    4.100529    2.685586
C      0.088437    4.008939    1.321041
C      0.846177   -1.178744    1.782655
C      0.441624   -1.138145    0.426542
C     -3.968383   -2.822270   -0.905817
C     -3.010879   -0.295916   -0.509642
C     -2.682047   -2.603825   -0.413052
C     -2.120026   -1.360512   -0.183264
N      5.250700   -1.247663   -0.436237
N     -3.032817    1.744480   -1.679633
O      1.015807    4.725294    3.481058
O     -0.068609   -1.211672    2.855508
O     -4.463689   -4.112764   -1.111431
O     -2.023722   -3.819111   -0.177516
O      1.319767    4.572157    0.735478
O     -0.901803   -1.161142    0.288006
H      6.977351   -2.269858   -0.902247
H      7.032358   -0.474181   -1.300125
H      6.172037   -1.639516   -2.337071
H     -1.712950    0.187649   -2.346011
H     -3.265352    0.330018   -3.242350
H     -1.913089    1.580906   -3.460798
H      1.045105   -0.394086    4.403724
H      0.836694   -2.161134    4.510317
H     -0.528513   -1.099470    4.856192
H     -5.961617   -3.721763   -2.519683
H     -5.927988   -5.392735   -1.885231
H     -6.548207   -4.066955   -0.879754
H     -1.970157   -4.345939   -2.131587
H     -0.446301   -3.651706   -1.565695
H     -0.888438   -5.353302   -1.043271
H      4.690599    1.574293    0.754123
H      2.033110    2.008806   -2.885775
H     -2.885823    2.526002    3.155614
H      3.580212    3.105972    1.697858
H      1.021118    3.575711   -1.910201
H     -1.115739    3.637320    4.465599
H      4.933587   -0.330906    1.992909
H      4.438025   -1.970747    2.629588
H     -5.915905    0.329000   -2.146837
H     -5.854745    0.898638   -0.474871
H      4.861050   -3.091143    0.577177
H      6.316881   -2.197372    1.048955
H     -4.608812    1.967741   -2.974149
H     -4.908685    2.723302   -1.412925
H      5.314002    0.333258   -2.022885
H      3.876944   -0.001207   -2.875513
H     -3.923646    2.593654    0.501691
H     -3.396489    1.253858    1.498579
H     -0.858628    3.530187   -0.596910
H      2.452171   -1.220332    3.229830
H     -5.802314   -1.914840   -1.590418
H      1.141426   -1.045982   -1.626337
H      4.035472   -1.923031   -1.849330
H     -1.492537    1.147849   -0.479504
H      0.910763    4.759080    4.469912
