53

C     -1.603296   -2.654174    0.017544
C      6.341242   -1.232565   -0.714153
C      4.936163    2.487339    1.852215
C     -2.706190   -0.467904    2.841857
C      2.290139   -1.483682    0.151835
C      3.655823   -1.369740   -0.132070
C     -1.673662   -0.392385   -2.615090
C     -1.239874   -1.735356   -2.091982
C     -3.763331    0.776513   -1.819583
C     -5.812525    2.624709    0.506822
C     -2.550114    0.222950   -1.589144
C      1.574097   -0.404299    0.613244
C      4.309178   -0.184767    0.042286
C     -4.493514    1.297698   -0.776024
C     -2.033146    0.182581   -0.266595
C      2.261193    0.771754    0.777367
C     -0.698801   -0.421638   -0.187268
C      0.129516   -0.215659    0.998331
C      3.604922    0.907727    0.504572
C     -3.978398    1.248915    0.499588
C     -2.744081    0.689247    0.760282
C      1.317619    1.765592    1.267887
N     -0.798149   -1.752559   -0.723194
O      1.552795    2.988143    1.549080
O      5.655988   -0.091625   -0.242968
O      4.290622    2.097565    0.672799
O     -2.293968    0.665850    2.052098
O     -5.742957    1.914064   -0.728075
O     -4.937569    1.847006    1.327429
O      0.117890    1.137735    1.372529
H     -1.369967   -2.714025    1.096225
H     -1.439935   -3.676315   -0.387198
H     -2.706807   -2.461832   -0.131030
H      6.402185   -2.014435    0.088833
H      7.371200   -0.925500   -0.964248
H      5.850278   -1.625931   -1.628116
H      4.347869    2.271425    2.758756
H      5.924395    2.002978    1.994637
H      5.143956    3.580360    1.786480
H     -1.899105   -0.811219    3.505599
H     -2.988077   -1.323432    2.194542
H     -3.620286   -0.222121    3.431396
H      1.827413   -2.439210   -0.003561
H      4.198342   -2.226918   -0.492459
H     -2.275289   -0.613444   -3.537633
H     -0.784801    0.199573   -2.873360
H     -0.366792   -2.093891   -2.707064
H     -2.053718   -2.477887   -2.255326
H     -4.137607    0.794956   -2.848321
H     -6.839956    2.646363    0.912454
H     -5.348108    3.611944    0.393402
H     -0.101811    0.115647   -1.017014
H     -0.100989   -0.816122    1.897322
