19

C     -1.386595    1.178826    0.824101
C     -1.779979   -1.187828    0.121317
C      2.638593   -0.350817    0.256435
C      0.852553    0.104686   -1.421645
C      1.347076    0.267599    0.003749
C     -0.823487   -0.010637    0.058595
O      2.731340   -1.304091    0.995553
O     -0.516401    0.299468   -1.240354
O      0.341300   -0.387910    0.709113
H     -0.996750    1.191817    1.863991
H     -2.485717    1.127921    0.884941
H     -1.045551    2.127421    0.329338
H     -2.663724   -1.032487   -0.555540
H     -2.136770   -1.229982    1.185751
H     -1.226776   -2.102062   -0.127991
H      3.528174    0.031474   -0.210675
H      1.271160    0.856126   -2.104461
H      0.982452   -0.933087   -1.788833
H      1.369100    1.353564    0.216615
