13

C     -1.408788   -0.478523    0.648880
C      1.018481   -0.318080    0.563335
C     -0.262705    0.293902    0.007316
O      2.110808    0.378467    0.083605
O     -0.311544    1.631573    0.431290
H     -1.211404   -1.546934    0.543277
H     -1.371813   -0.208141    1.738697
H     -2.380928   -0.178964    0.248818
H      0.959758   -0.298035    1.673897
H      1.066668   -1.376959    0.194632
H     -0.304053    0.192293   -1.086331
H      2.911480   -0.206645    0.046988
H     -0.815959    2.116046   -0.280197
