19

C     -1.553297    0.880212   -0.098052
C     -1.540174   -1.558215   -0.697795
C      2.623660    0.503351   -0.362071
C      0.832708    0.052303    1.289974
C      1.172929    0.605226   -0.075389
C     -0.747910   -0.383629   -0.171476
O      2.977397   -0.235922   -1.259936
O     -0.274309   -0.754212    1.101733
O      0.428653   -0.196656   -0.918191
H     -1.603747    1.282391    0.920161
H     -2.600137    0.672781   -0.437087
H     -1.087557    1.635482   -0.781695
H     -2.296622   -1.800299    0.104513
H     -2.044628   -1.350240   -1.645783
H     -0.827037   -2.404369   -0.803386
H      3.346901    1.066061    0.205987
H      0.668174    0.867679    2.020270
H      1.681067   -0.549379    1.689671
H      0.843929    1.667434   -0.081447
