39

C     -1.095623    2.124697    0.977171
C      3.938028    0.376729    0.247188
C     -0.113339   -0.697807    1.602858
C      0.088502    1.840189   -1.197787
C      1.383037    1.365700   -0.640391
C     -2.638390   -1.843719    0.205320
C     -2.705366   -0.319913    0.266342
C     -1.123547    1.482460   -0.374233
C      2.913053   -0.387884   -0.043101
C      1.742219   -0.038576   -0.901499
C     -1.199947   -2.163429    0.071589
C      0.788322   -1.104788   -0.690203
C      2.710593   -1.738613    0.416465
C     -0.415038   -0.896165    0.137321
C     -1.424797    0.047701   -0.413489
O     -0.728655   -3.263793   -0.067798
O      3.503357   -2.371360    1.157148
O     -1.589486   -0.307349   -1.776567
O      1.518396   -2.192978   -0.094326
H     -0.206226    1.945060    1.573345
H     -1.121136    3.240806    0.794222
H     -2.041833    1.913441    1.511939
H      4.714944    0.009028    0.875337
H      4.029539    1.391455   -0.134657
H     -0.964260   -0.262121    2.123893
H      0.038368   -1.719797    2.067507
H      0.858258   -0.191591    1.787195
H      0.126550    2.963636   -1.224057
H     -0.061264    1.521792   -2.242447
H      2.183610    2.000325   -1.139031
H      1.453076    1.681064    0.424296
H     -3.134072   -2.132219   -0.762590
H     -3.125634   -2.307600    1.062928
H     -3.571660    0.066499   -0.328899
H     -2.816352    0.042492    1.287068
H     -1.981753    1.997545   -0.913892
H      2.152098   -0.092816   -1.956864
H      0.445860   -1.530077   -1.680501
H     -2.529431   -0.448024   -2.006803
