58

C      7.704090    0.630792   -0.023838
C      1.068690    1.524842   -0.868088
C     -3.585997    1.447885    0.301454
C      1.096085   -0.253128    2.121608
C     -0.330133   -0.607381    2.195404
C     -3.339762   -0.752175    1.897854
C     -4.668556   -0.984694    1.158438
C      3.349656   -0.249691   -1.312810
C     -1.036305   -0.421332   -1.510127
C      1.933981   -0.725528   -1.252345
C     -2.342256    0.255692   -1.452344
C      3.194974    0.414401    1.081336
C      6.470547   -0.181840    0.130301
C      1.734582    0.071172    1.029640
C      4.007450   -0.311785    0.053252
C     -1.062105   -0.064504    0.978216
C     -2.374766   -0.690034    0.797328
C     -0.252724   -0.511348   -0.253239
C     -4.342549   -0.778020   -0.323808
C     -5.468448   -0.138916   -1.003236
C      1.090920    0.125708   -0.286960
C     -3.150487    0.111302   -0.239906
O      6.542780   -1.396644    0.446749
O     -5.999164   -0.708176   -2.001539
O     -6.019224    1.076989   -0.632059
O      5.246221    0.394222   -0.073179
H      8.034575    0.887386    1.014126
H      8.479180    0.121889   -0.600642
H      7.455973    1.602501   -0.504924
H      0.039344    1.930993   -0.948174
H      1.494790    1.566236   -1.890937
H      1.724073    2.153837   -0.224180
H     -3.928771    2.055693   -0.563434
H     -4.425488    1.392902    1.012706
H     -2.720975    2.015356    0.713186
H      1.642339   -0.271983    3.080608
H     -0.756397   -0.126704    3.108936
H     -0.491282   -1.698884    2.309963
H     -3.393236    0.132910    2.551778
H     -3.105165   -1.624302    2.554964
H     -5.452130   -0.298553    1.508754
H     -4.941272   -2.057647    1.319044
H      3.458999    0.773292   -1.700917
H      3.907332   -0.953561   -1.959109
H     -1.187583   -1.428649   -2.001066
H     -0.392721    0.130926   -2.259348
H      1.486635   -0.652013   -2.244141
H      1.957911   -1.787854   -0.897722
H     -2.184969    1.355516   -1.664553
H     -2.964205   -0.084333   -2.333396
H      3.341251    1.520305    0.946353
H      3.613230    0.162200    2.084491
H      4.238046   -1.355708    0.332748
H     -0.993385    1.017992    1.021351
H     -2.268654   -1.705202    0.358133
H     -0.075912   -1.611791   -0.051206
H     -4.086400   -1.776307   -0.789627
H     -6.972628    1.335747   -0.856209
