30

C     -2.293811    1.497994    0.685217
C     -2.982293   -0.608761   -0.374937
C      3.182325    0.272901    0.454430
C      1.237222    0.728683   -0.962000
C      0.406969    0.957808    0.307596
C      1.457211   -1.480398    0.032885
C     -1.863380    0.330758   -0.210598
C      2.239972   -0.363205   -0.565734
C     -0.601201   -0.200925    0.344005
C     -0.035749   -1.399719   -0.318089
Cl    -0.709998   -2.925742    0.362750
H     -3.381627    1.457574    0.904621
H     -1.784753    1.432903    1.680585
H     -2.046382    2.470235    0.243905
H     -2.866854   -1.605009    0.036923
H     -3.256862   -0.744034   -1.462297
H     -3.925224   -0.184171    0.080500
H      4.229741    0.282779    0.036101
H      3.163471   -0.332351    1.381521
H      2.932858    1.321131    0.659649
H      0.603812    0.396641   -1.790668
H      1.795364    1.654488   -1.205658
H      1.016174    0.876814    1.204957
H     -0.081510    1.924537    0.187087
H      1.506199   -1.413968    1.152840
H      1.824119   -2.496927   -0.261567
H     -1.631608    0.798410   -1.210900
H      2.814366   -0.729080   -1.414491
H     -0.783261   -0.464925    1.425730
H     -0.165291   -1.454441   -1.404362
