117

C      5.926704    4.023835    0.969693
C     -5.362172    1.350928    2.616632
C     -9.260060   -0.572735    0.341110
C     -3.351298    2.717599   -1.135661
C      1.733072    3.513428   -0.273013
C      1.413811   -4.248213   -0.186260
C     -6.543762    2.654519   -3.532315
C      6.590191    2.690750    1.071388
C     -4.212778    0.567169    2.057539
C      6.521506   -0.789742   -3.585342
C      5.699851    0.065219   -4.244145
C     -5.304086   -2.677971    2.141851
C      6.185953   -1.280398   -2.345881
C      4.524884    0.425070   -3.636989
C      4.994927   -2.216224    0.474639
C     -5.524729   -1.413497    1.858957
C     -2.461761   -2.180064   -1.422277
C     -4.051492   -3.308175    1.615663
C      6.240048   -1.658945    1.108190
C     -2.820430   -3.264259   -0.443725
C     -0.209297   -0.798719    0.088072
C     -0.397311    1.808226   -0.524236
C      4.530672    1.518098    1.655093
C      2.536309   -0.018589    1.941383
C      4.823035   -0.680624    2.819836
C      6.788681    0.493794    2.073040
C     -7.943509    0.125040    0.289387
C      3.850311    0.405865    2.406292
C      5.000051   -0.937600   -1.695289
C      4.408412   -1.265300   -0.487139
C     -1.427823   -0.291150   -0.365305
C      0.920202   -0.044859    0.244157
C      4.190118   -0.075301   -2.380964
C     -1.519646    1.024776   -0.673959
C      0.813309    1.295458   -0.071162
C      3.220943   -0.591160   -0.436024
C     -3.457969   -1.311461    0.620308
C     -3.449023    0.113931   -1.469435
C     -5.490803    0.057972   -0.020345
C      1.912008   -2.115908    0.861153
C     -5.651671    0.647450   -2.451681
C      5.948374    1.752379    2.068422
C     -4.642229   -0.526069    1.056911
C     -2.748811   -0.915170   -0.617352
C      2.236845   -0.674539    0.678340
C     -4.926434   -0.067683   -1.415202
N      3.127229    0.101601   -1.578882
N     -2.871184    1.337830   -1.119061
N      5.905567   -0.595189    1.935566
N     -3.873575   -2.668699    0.314564
O     -7.863582    1.364432    0.473456
O      1.799942   -2.697111    1.964085
O     -6.194224    0.011547   -3.421492
O      6.029572    2.370837    3.315924
O     -5.105559   -1.462921   -1.709253
O      1.898144    2.153629    0.063599
O      1.722519   -2.870735   -0.283343
O     -5.824110    2.011255   -2.495987
O     -6.780747   -0.572200    0.038023
H      6.392486    4.559248    0.116771
H      6.174832    4.621505    1.873848
H      4.858471    3.964325    0.767397
H     -5.680708    2.167786    1.912941
H     -4.920183    1.935066    3.485284
H     -6.197131    0.780888    3.009247
H     -9.038913   -1.650274    0.577651
H     -9.896438   -0.205734    1.168118
H     -9.765951   -0.583255   -0.636265
H     -2.572751    3.387500   -0.643560
H     -4.244111    2.881463   -0.508710
H     -3.413341    3.137070   -2.161312
H      1.392012    3.649724   -1.319522
H      2.613760    4.136156   -0.026566
H      0.913204    3.892981    0.405196
H      0.323466   -4.357501   -0.127976
H      1.773364   -4.705843   -1.143217
H      1.954882   -4.725805    0.652508
H     -7.240547    1.884784   -3.949078
H     -5.863911    2.918548   -4.367259
H     -7.093646    3.524524   -3.123931
H      6.583382    2.245529    0.034513
H      7.664769    2.862404    1.292383
H     -3.702621    0.096078    2.926071
H     -3.562838    1.274857    1.518918
H      7.457444   -1.067240   -4.085649
H      5.903873    0.486516   -5.218206
H     -6.012826   -3.272861    2.749240
H      6.860465   -1.946758   -1.886422
H      3.837383    1.097421   -4.110922
H      5.387963   -3.127525   -0.109380
H      4.335258   -2.658954    1.196721
H     -6.475918   -1.018987    2.270661
H     -1.395506   -2.234975   -1.738166
H     -3.049116   -2.270237   -2.335240
H     -3.192704   -3.020476    2.255492
H     -4.170510   -4.396550    1.526597
H      6.682475   -2.473931    1.774680
H      7.065305   -1.469342    0.392407
H     -1.963357   -3.554252    0.201894
H     -3.251636   -4.162530   -0.967412
H     -0.183563   -1.849839    0.333818
H     -0.449822    2.865460   -0.765997
H      4.501616    1.421804    0.559737
H      3.983960    2.488155    1.864998
H      1.853054    0.887255    2.115444
H      2.129505   -0.703430    2.765112
H      5.252049   -0.491136    3.860355
H      4.412486   -1.677346    2.880814
H      7.346917    0.404245    3.027503
H      7.532964    0.470079    1.256882
H      3.625037    0.907418    3.417324
H     -2.755559   -1.324860    1.516947
H     -3.140521   -0.133523   -2.530868
H     -5.661060    1.126829    0.180153
H      2.315741    0.725038   -1.917937
H      6.835599    1.998327    3.790656
H     -5.291649   -1.527248   -2.659398
