58

C     -8.614961   -1.637545    3.370581
C      8.983247    1.439600   -2.746187
C     -5.897539   -1.129808   -1.653153
C      5.051789   -2.362024   -1.047212
C     -2.926161   -0.219599    2.344840
C      3.304609    2.305695   -1.019571
C     -4.089688   -0.812917    2.793224
C      4.693754    2.397496   -1.168460
C     -3.752135   -0.344222    0.144333
C      3.528949   -0.038506   -0.964694
C     -0.150308   -0.826109   -0.916962
C      0.255947    1.859917    1.299695
C     -7.372697   -1.054959    2.836513
C      7.497562    1.355398   -2.608186
C     -2.736404    0.026784    1.000994
C      2.720597    1.064085   -0.916764
C     -0.322785   -0.289057    0.474931
C      0.851052    0.647925    0.652448
C     -5.109478   -1.186273    1.941220
C      5.498191    1.278008   -1.215408
C     -4.913682   -0.937215    0.597919
C      4.906064    0.047380   -1.112095
C     -1.481973    0.664675    0.534186
C      1.251368    0.929203   -0.758454
O     -7.303447    0.196634    2.727626
O      6.772501    1.281797   -3.636182
O     -5.946764   -1.316742   -0.256073
O      5.661053   -1.111901   -1.152448
O     -1.106102    1.740549    1.306998
O      0.753993   -0.045339   -1.586179
O     -6.264572   -1.781499    2.441083
O      6.881585    1.355781   -1.363219
H     -8.515156   -2.639866    3.789759
H     -9.105875   -0.940974    4.111405
H     -9.342097   -1.691952    2.508604
H      9.420395    0.435948   -2.680698
H      9.203347    1.897845   -3.724707
H      9.383205    2.135898   -1.958567
H     -5.508472   -0.141255   -1.922793
H     -6.927824   -1.257031   -2.040330
H     -5.297593   -1.974161   -2.088718
H      4.248218   -2.485085   -1.822090
H      4.534417   -2.410031   -0.068469
H      5.793294   -3.174757   -1.121633
H     -2.124882    0.072105    3.028660
H      2.701992    3.187875   -0.985474
H     -4.233942   -1.004065    3.850626
H      5.145271    3.376567   -1.248700
H     -3.610928   -0.154863   -0.908211
H      3.072131   -1.014634   -0.884154
H      0.108061   -1.909517   -0.927080
H     -1.133633   -0.752865   -1.463148
H      0.691623    2.079151    2.306158
H      0.511059    2.773662    0.686347
H     -0.410816   -1.048026    1.250523
H      1.650746    0.197011    1.273507
H     -1.632296    1.058758   -0.510951
H      0.756190    1.887048   -1.059241
