78

C     -5.517230    1.016021   -1.601112
C     -6.008437   -0.606426    0.139137
C      4.004974   -1.680180    0.781707
C      4.639670    2.659108   -0.557761
C     -3.335150   -0.938024    1.915003
C      0.691860   -0.411826   -2.107306
C     -1.238790   -2.361549   -0.031312
C     -3.300282   -0.880991   -1.259132
C     -3.976804    2.398387    1.020876
C     -3.035899    1.457010    1.706350
C     -1.827580   -0.678210   -1.638399
C      4.618526   -0.581989   -1.299943
C      5.508936    0.358277   -0.561018
C      2.608848   -2.020111   -1.181053
C      1.209261   -2.175582   -0.592009
C      0.871597    0.466918    1.387442
C      3.522832    0.959690    0.895446
C      1.306269    0.003604    0.261159
C      2.708720    0.261205   -0.133249
C     -0.518377    0.193136    1.736340
C     -3.646687    0.217992   -0.306392
C     -5.236697    1.701333    0.678837
C     -1.424641    0.080126    0.589252
C      5.743095    1.751934    1.383466
C     -5.106015    0.510348   -0.205276
C      3.441753   -1.027995   -0.462053
C      4.836334    1.379222    0.267379
C     -2.883641    0.112685    0.969167
C      0.487968   -0.802503   -0.656026
C     -0.961271   -0.924353   -0.377422
O     -0.857006    0.073618    2.937962
O     -6.284049    2.119022    1.120299
O      6.190720    2.919349    1.510914
O      6.149634    0.839357    2.348805
H     -5.866036    0.121101   -2.191091
H     -6.287042    1.798128   -1.527604
H     -4.649070    1.425795   -2.147824
H     -6.273985   -0.690250    1.214108
H     -7.008222   -0.404319   -0.354490
H     -5.655994   -1.535477   -0.321677
H      4.153882   -2.761605    0.522873
H      3.282773   -1.678228    1.622525
H      4.977717   -1.302699    1.093214
H      3.951320    3.362322   -0.049640
H      4.370058    2.436316   -1.593757
H      5.635838    3.154077   -0.574569
H     -2.522149   -1.475169    2.453848
H     -4.106209   -1.650116    1.497149
H     -3.923439   -0.489212    2.779465
H      1.741060   -0.159454   -2.356932
H      0.092059    0.412305   -2.464344
H      0.465848   -1.311915   -2.713952
H     -0.545139   -2.792643    0.711615
H     -2.246736   -2.569496    0.367147
H     -1.257235   -2.921133   -1.007435
H     -3.853006   -0.653375   -2.219401
H     -3.563897   -1.885696   -0.981258
H     -4.207700    3.194911    1.752616
H     -3.523453    2.917920    0.153929
H     -3.462611    1.300488    2.739573
H     -2.092899    1.974105    1.865118
H     -1.778891    0.423054   -1.801122
H     -1.534669   -1.295987   -2.477510
H      5.208587   -1.414928   -1.689172
H      4.212910   -0.031675   -2.192921
H      6.303587   -0.232490   -0.016485
H      6.109128    0.908501   -1.348233
H      3.079260   -3.034881   -0.982230
H      2.613443   -1.964036   -2.283425
H      1.385243   -2.395673    0.479975
H      0.728430   -2.941776   -1.178082
H      1.493147    1.045992    2.102860
H      3.009947    1.930847    1.146695
H      3.747319    0.402024    1.800097
H      2.728403    0.963840   -1.021371
H     -3.219115    1.149781   -0.808688
H     -1.346932    1.068915    0.020303
H      6.252034    1.213213    3.300027
