34

C     -2.636077   -1.007269   -1.285818
C     -2.627017    0.364793    0.723081
C      3.494924   -1.107092    0.308209
C     -0.195625    3.124015    0.466458
C      1.134354   -1.742394    0.608212
C     -0.275898   -1.412175    0.314606
C      1.787406    0.542600   -0.213928
C     -1.949254    0.152958   -0.586320
C      2.089954   -0.613968    0.671200
C     -0.489079   -0.159499   -0.474639
C      0.336262    0.951160    0.077050
O      0.094875    2.179698   -0.492082
H     -2.735954   -1.886766   -0.636123
H     -3.669945   -0.664791   -1.527271
H     -2.119754   -1.246029   -2.252908
H     -3.440859    1.118013    0.564469
H     -3.171188   -0.572509    1.033653
H     -1.972687    0.726448    1.532682
H      3.972899   -1.627639    1.144549
H      4.097348   -0.237125   -0.056068
H      3.431555   -1.807042   -0.567487
H     -1.075750    2.905914    1.080938
H     -0.369683    4.096924   -0.077006
H      0.646698    3.330807    1.155700
H      1.540585   -2.507821   -0.107822
H      1.159889   -2.267439    1.608307
H     -0.890810   -1.343667    1.259692
H     -0.727999   -2.250139   -0.257415
H      1.829418    0.227685   -1.280335
H      2.488373    1.352718   -0.000641
H     -2.061168    1.037433   -1.248057
H      2.171439   -0.240408    1.724714
H     -0.121377   -0.362106   -1.517165
H      0.254145    0.944714    1.187335
