80

C     -6.586886    1.756988    1.690145
C     -5.366501   -0.904003   -2.338924
C     -7.634423   -0.348655   -1.614494
C     -1.930926    1.532839    1.282805
C      5.003635   -0.943086    1.808005
C      0.166184   -1.514207    1.256146
C     -6.890702    0.538192    0.876208
C     -3.317894    0.338537   -0.386896
C     -4.525851    0.394575    0.483534
C      4.876752   -1.160402   -1.561936
C      3.421710   -1.307425   -1.734536
C     -0.948988   -1.156565   -1.252864
C      0.446343   -1.693846   -1.449701
C      6.070717    1.819808   -0.327478
C      2.442019    0.173043    1.632566
C      5.269367    1.341448    0.870735
C      1.074578    0.755210    1.210336
C      6.947889   -0.502261   -0.451244
C     -6.198788   -0.641497   -1.140906
C     -2.045908    0.301018    0.449188
C     -5.817259    0.481359   -0.251243
C      5.462559   -0.602837   -0.531276
C      7.306962    0.964782   -0.552432
C      2.668957   -1.076566   -0.442407
C     -0.815666    0.101101   -0.362475
C      1.294561   -0.656469   -0.805739
C      3.250537    0.087690    0.360028
C      4.702685   -0.039296    0.613649
C      0.414307   -0.291432    0.398099
O      8.303535    1.324259    0.366636
H     -7.538962    2.180928    2.119212
H     -6.075390    2.560725    1.124879
H     -5.910562    1.524273    2.553460
H     -6.090295   -1.123180   -3.201864
H     -4.753024   -1.830793   -2.306938
H     -4.822669   -0.011593   -2.719470
H     -8.386510   -0.821148   -0.982870
H     -7.767103    0.743425   -1.602719
H     -7.744901   -0.653265   -2.685619
H     -1.790359    1.346161    2.363908
H     -2.756214    2.283829    1.109622
H     -1.026383    2.106802    0.912266
H      4.263276   -0.836141    2.610945
H      5.044025   -1.984797    1.396788
H      6.012605   -0.710513    2.171256
H     -0.776733   -1.993069    0.983415
H      0.956067   -2.264336    1.208630
H      0.053055   -1.203189    2.335509
H     -6.735261   -0.377276    1.479095
H     -7.900295    0.515427    0.466352
H     -3.297244    1.249410   -1.017425
H     -3.309476   -0.553762   -1.056911
H     -4.445692    1.318192    1.130018
H     -4.531078   -0.432673    1.247447
H      5.533723   -1.545195   -2.353887
H      3.046873   -0.535434   -2.460058
H      3.142505   -2.318030   -2.092287
H     -1.341386   -0.846154   -2.253639
H     -1.649006   -1.882819   -0.844011
H      0.517900   -2.624926   -0.833870
H      0.682032   -1.888433   -2.510007
H      6.336768    2.877241   -0.135987
H      5.483324    1.792211   -1.253721
H      2.909603    0.773823    2.409074
H      2.223112   -0.860843    1.970389
H      5.949227    1.349708    1.748342
H      4.441321    2.071788    0.989996
H      0.542571    0.901301    2.174457
H      1.283048    1.682139    0.652980
H      7.450993   -1.103342   -1.221087
H      7.306656   -0.835812    0.561729
H     -6.290983   -1.597955   -0.530378
H     -2.191515   -0.549377    1.190498
H     -5.886555    1.439166   -0.793905
H      7.704396    1.113325   -1.577537
H      2.708768   -1.965929    0.220594
H     -0.573311    0.934742   -1.034669
H      1.355982    0.260310   -1.418104
H      3.032137    1.002592   -0.227731
H      8.567439    2.250162    0.119480
