42

C     -1.887211    2.961174    0.623414
C     -1.837756   -2.893231   -0.369735
C      3.346164   -0.951633    0.859248
C      2.991812   -0.939283   -1.578783
C     -0.083529    1.557112    1.481264
C     -3.285575   -0.873395   -0.131180
C      1.312796    1.119681    1.127726
C     -3.024371    0.587625   -0.550329
C      0.437715   -0.916195   -0.055096
C     -0.874864    1.905512    0.227621
C     -2.053580   -1.469373   -0.769820
C      1.360022    0.249482   -0.097424
C     -1.563210    0.652963   -0.195080
C     -1.004206   -0.540555   -0.314789
C      2.784403   -0.176319   -0.293050
O      3.545662    1.005275   -0.399035
H     -1.335212    3.763683    1.153929
H     -2.606501    2.547766    1.382172
H     -2.438601    3.367126   -0.230415
H     -0.804537   -3.232305   -0.453672
H     -2.252386   -3.044578    0.645169
H     -2.445582   -3.529021   -1.054381
H      3.893421   -1.841481    0.479572
H      4.058958   -0.362060    1.478287
H      2.576515   -1.329589    1.557268
H      2.176150   -0.737931   -2.300229
H      3.080947   -2.021346   -1.348127
H      3.949392   -0.650719   -2.077462
H      0.004803    2.490641    2.073129
H     -0.564302    0.747626    2.043606
H     -3.243253   -0.930721    0.976739
H     -4.219809   -1.253119   -0.551355
H      1.755827    0.616401    1.985121
H      1.914377    2.030373    0.899981
H     -3.637394    1.252928    0.054376
H     -3.195373    0.662871   -1.630894
H      0.516086   -1.510214    0.881922
H      0.739851   -1.607775   -0.873244
H     -0.258558    2.331426   -0.566097
H     -2.182340   -1.345279   -1.872503
H      1.085152    0.860676   -0.995966
H      3.268097    1.445782   -1.221877
