15

C      0.737940    0.401809    0.543952
C     -0.569941    0.806426   -0.061855
C      1.448880   -0.674045   -0.162089
C     -1.586592   -0.232636   -0.137450
O     -1.055336    1.903978    0.659350
O      1.024735   -1.175030   -1.206660
O      2.659014   -1.186394    0.327804
O     -2.710148   -0.022660    0.444356
O     -1.496329   -1.450361   -0.772824
H      1.398004    1.321851    0.532746
H      0.598717    0.175254    1.623668
H     -0.361753    1.196180   -1.087117
H     -1.467125    2.568509    0.051135
H      3.446156   -1.378540   -0.306096
H     -2.066222   -2.254341   -0.560937
