56

C     -3.223036    2.363720   -0.764764
C      3.998856   -2.399505    0.299772
C      5.435754    0.968093   -1.199629
C     -2.354361    1.410179   -1.555583
C      2.098586    2.888123    0.266339
C     -4.102984   -0.956165    0.643099
C      0.983971    2.146233    0.550853
C      3.189895    2.229683   -0.215999
C     -0.097539   -0.721594   -1.786120
C     -3.677971   -0.415671   -0.671402
C     -1.598635   -0.833837   -1.827173
C      0.013412   -0.881771    1.944735
C     -2.877196   -1.419775    1.407698
C     -1.159484   -0.313507    2.678353
C      2.586700   -2.346417   -0.081261
C      0.911801    0.798800    0.378483
C      3.162500    0.875428   -0.405167
C      0.274440   -1.287106   -0.432290
C      2.027403    0.123934   -0.113509
C     -1.513318    0.272547    0.445337
C     -2.266381    0.072484   -0.780992
C     -0.143045   -0.250893    0.577256
N     -2.153798   -0.217256    1.665576
N      1.733734   -1.254636   -0.209115
O      2.081547   -3.518774   -0.327742
O      4.266971    0.238567   -0.892708
H     -3.329851    2.046436    0.290857
H     -2.768757    3.382936   -0.755536
H     -4.254850    2.409875   -1.181528
H      4.729618   -2.352864   -0.502368
H      4.197780   -1.589581    1.037680
H      4.204572   -3.352290    0.876406
H      5.713622    1.612542   -0.365106
H      6.241025    0.214595   -1.412484
H      5.317792    1.564710   -2.135781
H     -2.801469    1.197038   -2.549055
H     -1.348218    1.844827   -1.618055
H      2.085754    3.953550    0.427650
H     -4.851330   -1.750414    0.545737
H     -4.584244   -0.165575    1.290321
H      0.122231    2.668096    0.932017
H      4.069522    2.816521   -0.440755
H      0.304816   -1.281094   -2.627264
H      0.191877    0.354392   -1.832727
H     -4.436748    0.388984   -0.926645
H     -3.934329   -1.215346   -1.433175
H     -1.927938   -0.585499   -2.850859
H     -1.887975   -1.877039   -1.618746
H     -0.160022   -1.991458    1.863458
H      0.991271   -0.648582    2.405806
H     -2.302902   -2.061572    0.733195
H     -3.152950   -1.931495    2.352123
H     -1.520338   -1.008290    3.461257
H     -0.926277    0.678704    3.111141
H     -0.145268   -2.279401   -0.285589
H     -1.434233    1.386414    0.659740
