16

C     -1.381131   -0.623793   -0.604819
C      1.564640   -0.692560    0.150414
C     -0.705258    0.364623    0.316476
C      0.749047    0.564888   -0.027485
O     -0.801499   -0.144651    1.606692
O      0.831933    1.073722   -1.318018
H     -0.906478   -0.702149   -1.588533
H     -2.427065   -0.271642   -0.746791
H     -1.457561   -1.638072   -0.123417
H      0.937950   -1.601502    0.245324
H      2.208462   -0.838975   -0.741230
H      2.236821   -0.649300    1.030902
H     -1.201882    1.350005    0.236548
H      1.148551    1.334257    0.658404
H     -1.414037    0.427958    2.161895
H      0.617509    2.047193   -1.256362
