39

C      4.485075   -0.450267   -0.428338
C     -1.060873    2.516826    1.138116
C     -1.602353    2.665093   -1.260226
C     -1.518317   -3.633941    0.211655
C      3.773091    0.858783   -0.151342
C     -2.255699   -1.393528   -0.607966
C     -2.254837    0.051949   -0.119586
C     -0.011217   -1.680731    0.463794
C     -0.705558    2.012792   -0.226395
C     -1.434455   -2.140556    0.430088
C     -0.844055    0.535356   -0.376074
C      0.162324   -0.193757    0.420687
C      2.481001    0.639347    0.542680
O      2.320776    0.970240    1.728973
O      1.438196    0.052659   -0.146738
H      4.408201   -1.126824    0.429900
H      5.530677   -0.207686   -0.671499
H      3.995350   -0.890977   -1.345970
H     -1.642893    1.787519    1.719249
H     -0.153014    2.789395    1.722944
H     -1.724824    3.423655    1.038665
H     -2.461218    3.167558   -0.794758
H     -1.038867    3.449127   -1.827419
H     -1.970459    1.923620   -2.006760
H     -1.380601   -3.862395   -0.868420
H     -0.707215   -4.106170    0.810406
H     -2.497251   -4.036779    0.592447
H      4.440123    1.438128    0.536333
H      3.662887    1.411414   -1.093167
H     -1.694863   -1.455888   -1.558259
H     -3.252570   -1.845951   -0.632491
H     -2.411169    0.035837    0.978190
H     -3.005016    0.670206   -0.611634
H      0.438870   -2.054599    1.402480
H      0.539479   -2.179952   -0.359326
H      0.348372    2.286006   -0.467718
H     -1.922403   -1.945587    1.410135
H     -0.666196    0.309167   -1.475384
H      0.191499    0.210909    1.452727
