52

C      2.484376   -4.509367   -0.654811
C      3.882197    4.084105    0.376775
C     -5.527678   -1.054777    0.720037
C     -3.795155    2.919110   -1.154224
C     -0.209370    2.690756   -1.440120
C     -0.866744   -2.657705    0.704201
C      0.954899    1.244896    0.923782
C      0.598335   -2.814249    0.829681
C      2.085229    2.015357    0.797748
C     -2.755508   -1.181631    0.597282
C      2.998976   -0.703517   -0.492602
C     -1.385908   -1.285151    0.546411
C      0.774138    0.021928    0.315142
C      1.694263   -0.928810   -0.158193
C      1.418970   -2.374927   -0.368908
C      3.723017    0.478282   -0.297968
C      3.290128    1.709306    0.163300
C     -3.382854    0.031029    0.426359
C     -0.684690   -0.090509    0.313645
C     -2.632460    1.192767    0.192591
C     -1.252289    1.122004    0.133528
N      2.674855   -3.089649   -0.462927
O      4.960366    0.400310   -0.590690
O      4.151536    2.771303   -0.023483
O     -4.760740    0.093016    0.487422
O     -3.307671    2.370292    0.030061
O     -0.502424    2.247449   -0.116373
H      1.662145   -4.739680   -1.368784
H      2.398996   -5.071985    0.297481
H      3.416497   -4.889237   -1.147804
H      2.856673    4.398705    0.087598
H      3.987172    4.139991    1.479434
H      4.618075    4.812133   -0.063774
H     -5.389136   -1.326185    1.804658
H     -5.210088   -1.871925    0.044432
H     -6.597574   -0.776011    0.537715
H     -3.532845    2.332236   -2.064021
H     -4.894944    3.128072   -1.135455
H     -3.296124    3.918703   -1.283267
H      0.195426    3.719877   -1.327478
H      0.625209    2.059169   -1.805463
H     -1.086020    2.650082   -2.113725
H     -1.388838   -3.190493    1.535020
H     -1.172715   -3.225218   -0.226147
H      0.120721    1.513823    1.539228
H      0.982985   -2.245799    1.724419
H      0.798760   -3.881258    1.078075
H      1.994182    2.982101    1.265422
H     -3.316274   -2.105468    0.779003
H      3.524400   -1.527862   -0.953875
H      0.842025   -2.509199   -1.288433
H      3.233499   -2.996189    0.427150
