36

C     -2.039940   -1.041550    1.372461
C     -1.807681   -2.385555   -0.673222
C      3.804676    0.466404   -0.740204
C     -2.840754    3.039217   -0.544218
C      2.219724   -1.246256   -0.057840
C      0.846931   -1.560484    0.542332
C      1.552454    1.175097   -0.143826
C     -1.543818   -1.049262   -0.031566
C      2.596029    0.173005    0.159715
C     -1.819302    2.241172    0.184372
C     -0.105852   -0.672836   -0.180491
C      0.157260    0.763469    0.226760
O     -1.848979    2.201911    1.445930
O     -0.820458    1.525406   -0.430504
H     -1.291496   -0.784643    2.132864
H     -2.909886   -0.340881    1.517729
H     -2.459095   -2.049415    1.647629
H     -1.313250   -2.467943   -1.660761
H     -1.469289   -3.208516   -0.000379
H     -2.903526   -2.504307   -0.768366
H      3.751287   -0.210404   -1.625199
H      3.791151    1.500890   -1.099346
H      4.741180    0.210544   -0.205854
H     -3.700451    2.427865   -0.837663
H     -3.187297    3.836191    0.136053
H     -2.376329    3.529733   -1.447489
H      2.122251   -1.427692   -1.149596
H      3.000689   -1.902695    0.360284
H      0.685589   -2.628164    0.403829
H      0.847948   -1.275669    1.632515
H      1.534407    1.452928   -1.227641
H      1.788489    2.108091    0.409412
H     -2.141155   -0.298383   -0.607012
H      2.988741    0.312390    1.208923
H      0.136539   -0.727103   -1.272884
H      0.013216    0.817444    1.323250
