52

C      5.384393    0.146797    0.652277
C      4.642969    0.358216   -1.658064
C     -0.864670   -0.977314   -1.441299
C     -3.126711    1.480514   -1.404407
C     -3.264099   -1.734716   -0.033071
C      2.514632   -1.806862   -0.027097
C      0.397529    1.796630    0.895924
C      1.091356   -1.999185    0.310892
C     -0.803015    1.781143   -0.072040
C     -1.911202   -1.745411    0.626574
C     -3.944315   -0.410942   -0.022979
C      2.346693    0.525828    0.265877
C      4.594865   -0.534916   -0.419634
C      3.136675   -0.651524   -0.061347
C      1.079979    0.479325    0.588983
C      0.343033   -0.777632    0.684784
C     -1.659291    0.621053    0.351907
C     -3.662456    1.773339    0.918915
C     -1.011435   -0.699369    0.008292
C     -3.062595    0.788836   -0.055748
O     -4.081796    2.889257    0.540547
O     -3.736451    1.410114    2.240070
H      4.735249    0.825899    1.248410
H      6.163313    0.789323    0.184275
H      5.939761   -0.571604    1.301702
H      4.415322    1.388752   -1.292310
H      5.597946    0.307018   -2.181254
H      3.776293    0.070301   -2.294461
H     -1.613302   -0.482086   -2.090860
H      0.155304   -0.769284   -1.839044
H     -1.055971   -2.080081   -1.601382
H     -3.779802    2.404214   -1.379103
H     -3.646742    0.772070   -2.109890
H     -2.174153    1.825570   -1.793234
H     -3.128825   -2.132061   -1.061895
H     -3.874120   -2.502478    0.498841
H      3.073696   -2.710638   -0.263539
H      1.050005    2.635145    0.667141
H     -0.040306    1.791647    1.913786
H      0.655889   -2.515022   -0.591804
H      1.082915   -2.737384    1.163703
H     -0.316264    1.533642   -1.060182
H     -1.330481    2.731469   -0.089620
H     -1.967097   -1.596200    1.728809
H     -1.460388   -2.737246    0.459927
H     -4.639927   -0.402000    0.843415
H     -4.607062   -0.365330   -0.921362
H      2.894462    1.482419    0.223765
H      4.989048   -1.531566   -0.611913
H      0.087994   -0.882538    1.794361
H     -1.636589    0.642067    1.486717
H     -3.750255    2.102800    2.976351
