49

C     -1.940963   -1.893560   -1.018230
C      6.392726    1.746133    0.393726
C      5.688616    1.825750   -0.786429
C      5.902288    0.957753    1.412026
C      4.510283    1.103824   -0.894262
C      4.724438    0.242550    1.287057
C     -4.282867    0.276753   -1.204070
C     -4.019328    0.368142    1.178751
C     -5.645818    0.225848   -1.063166
C     -5.401940    0.315267    1.302924
C      1.721895    0.282176   -0.911256
C      2.064174   -0.639674    1.314345
C      0.575438   -0.685178   -1.109863
C      0.589969   -0.638886    1.303143
C     -1.451899   -0.936826    0.087134
C     -3.479021    0.348123   -0.082010
C      4.002731    0.311765    0.107036
C     -6.212578    0.244552    0.181873
C     -1.978937    0.412626   -0.264358
C      2.727953   -0.450538   -0.044423
N     -0.031610   -1.073321    0.094533
O     -7.587082    0.190236    0.289549
O     -1.536337    1.416584    0.587895
O      2.964729   -1.726351   -0.540190
H     -1.209886   -2.721207   -1.150652
H     -1.928526   -1.343945   -2.002227
H     -2.907704   -2.350027   -0.784006
H      7.311018    2.303761    0.493771
H      6.062172    2.442698   -1.598898
H      6.466248    0.907449    2.330805
H      3.986857    1.191570   -1.835687
H      4.392758   -0.357856    2.113564
H     -3.803281    0.263230   -2.175059
H     -3.385537    0.424621    2.061961
H     -6.265660    0.171215   -1.947359
H     -5.827381    0.330058    2.307930
H      1.324279    1.177537   -0.415140
H      2.097168    0.503826   -1.924270
H      2.504252   -1.568803    1.782839
H      2.470064    0.201753    1.953536
H      1.032932   -1.601267   -1.585964
H     -0.078907   -0.269420   -1.894307
H      0.249257    0.377962    1.650515
H      0.228790   -1.314609    2.120332
H     -1.916770   -1.307776    1.030340
H     -1.746351    0.714318   -1.293572
H     -8.077394    0.200902    1.168373
H     -2.217558    1.819130    1.150632
H      2.942298   -2.418865    0.168893
