24

C      1.992249    1.102380   -0.689248
C     -2.365388   -0.300447    0.950782
C     -1.053200   -0.618944    1.134350
C     -2.874858   -0.065339   -0.299930
C      1.227268   -1.063647    0.297560
C     -0.705858   -0.479182   -1.188535
C      2.055795    0.196871    0.518270
C     -0.191036   -0.714808    0.054761
C     -2.026428   -0.157945   -1.380633
N      1.603791    0.845645    1.715152
O     -2.509469    0.073168   -2.653225
H      2.933278    1.725962   -0.688313
H      1.111577    1.755172   -0.640922
H      2.025937    0.532707   -1.637954
H     -3.009746   -0.234485    1.817704
H     -0.670434   -0.800555    2.126699
H     -3.917526    0.191186   -0.481931
H      1.288504   -1.636833    1.260376
H      1.674778   -1.685634   -0.481247
H     -0.075432   -0.541297   -2.065096
H      3.115315   -0.096374    0.664303
H      1.555160    0.094811    2.462144
H      2.290069    1.566777    2.029666
H     -3.474348    0.310813   -2.824735
