24

C     -2.138945   -0.336253    0.768367
C      1.946899   -1.565594    0.811292
C      0.774910   -1.314696    0.111751
C      2.887523   -0.563271    0.927153
C     -0.748296    0.137015   -1.214073
C      1.462308    0.881677   -0.345472
C     -1.853760    0.665692   -0.329146
C      0.510538   -0.098818   -0.475188
C      2.649506    0.662583    0.350164
N     -3.060436    0.706071   -1.170129
O      3.616405    1.638838    0.489268
H     -2.965795   -0.022038    1.415902
H     -2.432600   -1.316016    0.320902
H     -1.209293   -0.525733    1.367790
H      2.156851   -2.522892    1.274328
H      0.063730   -2.125093    0.043615
H      3.795160   -0.774935    1.475326
H     -0.568277    0.810143   -2.077945
H     -1.117372   -0.823344   -1.663700
H      1.313622    1.852819   -0.781927
H     -1.629103    1.632432    0.118687
H     -3.063443   -0.241062   -1.657643
H     -3.914698    0.687121   -0.540973
H      3.524566    2.555354    0.102454
