40

C      3.591003   -2.192240   -0.335034
C     -1.166087   -2.306784   -2.354103
C      2.571655   -2.191720    0.803445
C      1.490142    3.539377    0.104290
C      1.573212    2.802383    1.264016
C      0.703140    3.064601   -0.901740
C     -3.029687    0.882265   -0.249866
C     -2.662686    1.128726    1.151380
C      0.880782    1.619796    1.401948
C     -0.013753    1.885356   -0.818923
C     -2.418292    0.010242   -1.039228
C     -1.656413    0.173703    1.687319
C      0.074649    1.159760    0.336879
C     -1.301006   -0.776317   -0.513019
C      0.422125   -1.056450    1.173798
C     -0.606062   -0.099176    0.591155
N     -0.441423   -1.358884   -1.520461
O      0.291283   -1.583331    2.286287
O      1.522792   -1.317567    0.399761
H      3.460178   -3.112446   -0.935976
H      4.623374   -2.090287    0.063313
H      3.433320   -1.330510   -1.024651
H     -1.841759   -1.763530   -3.073302
H     -1.847876   -2.947376   -1.752095
H     -0.443531   -2.923737   -2.925022
H      2.128954   -3.195402    0.904376
H      3.008443   -1.801206    1.748271
H      2.052920    4.482280    0.015745
H      2.202536    3.167628    2.089523
H      0.613979    3.617031   -1.830021
H     -3.851867    1.446865   -0.670627
H     -3.597276    1.014498    1.776695
H     -2.263635    2.176139    1.242140
H      0.959776    1.055514    2.323204
H     -0.621034    1.530295   -1.623081
H     -2.771765   -0.100406   -2.084420
H     -2.197407   -0.790579    1.902806
H     -1.113612    0.555229    2.551717
H     -1.798307   -1.693802   -0.034101
H      0.039217   -0.679938   -2.132399
