42

C      3.592028   -2.732931   -0.074555
C     -2.198113    3.306760    0.608520
C      3.099718   -1.485750    0.657039
C     -2.641904   -3.117635    0.456387
C     -2.579057   -2.554738   -0.799191
C     -1.897353   -2.555249    1.472135
C      1.170915    2.658618   -0.511737
C      0.800792    2.005696   -1.768040
C     -1.775906   -1.432455   -1.045183
C     -1.107946   -1.454181    1.235516
C      0.475023    2.455825    0.597867
C      0.206295    0.627914   -1.631531
C     -1.036253   -0.871606   -0.041774
C     -0.695546    1.538200    0.514541
C      1.125629   -0.014990    0.475744
C     -0.179036    0.294315   -0.227841
N     -1.788673    2.150390   -0.167811
O      1.590237    0.650963    1.409905
O      1.885141   -1.124776    0.066390
Cl     0.692254    0.000000    0.000000
H      4.689489   -2.787078    0.097464
H      3.129960   -3.642467    0.339286
H      3.382897   -2.657269   -1.163725
H     -3.282850    3.317857    0.825391
H     -1.913938    4.238547    0.064035
H     -1.685018    3.346453    1.599080
H      2.898206   -1.723021    1.723485
H      3.802240   -0.652620    0.591969
H     -3.256377   -3.981693    0.658503
H     -3.149361   -2.963515   -1.635206
H     -1.925117   -2.974047    2.469141
H      2.045792    3.340776   -0.457716
H      0.155824    2.687418   -2.403436
H      1.748403    1.941456   -2.381942
H     -1.737835   -1.001627   -2.039477
H     -0.511328   -0.995198    2.027676
H      0.777701    2.955097    1.505925
H      0.958143   -0.093024   -2.039413
H     -0.626754    0.596582   -2.370753
H     -0.948313    1.216817    1.530110
H     -2.597752    1.486185   -0.166775
H     -0.692254    0.000000    0.000000
