42

C      3.287311    0.801405   -1.070877
C     -3.497179    1.360130    0.538990
C      3.383885    1.184032    0.380900
C     -3.420800    1.204465   -0.955032
C     -2.768118    0.213139    1.209830
C      1.920086    0.233602   -1.354827
C      3.187304   -0.079278    1.203862
C     -2.933725   -0.185932   -1.352179
C     -0.175209   -2.030659    0.641655
C      0.872930    0.092244    1.407702
C     -0.435603   -0.699460    1.313003
C      0.470810   -1.720128   -0.717847
C     -1.404190    0.132039    0.557730
C      1.749228   -0.991089   -0.492779
C     -0.544635   -0.967487   -1.468136
N      1.937361   -0.721449    0.911158
N     -1.609807   -0.358082   -0.780386
O     -0.470473   -0.864637   -2.711022
H      3.547589    1.657175   -1.714249
H      4.017373   -0.025885   -1.233321
H     -2.951256    2.297627    0.850173
H     -4.532572    1.473689    0.915492
H      4.407428    1.571546    0.609138
H      2.645237    1.946928    0.687169
H     -4.423692    1.415452   -1.381130
H     -2.680627    1.921883   -1.373422
H     -2.586846    0.424162    2.288929
H     -3.375201   -0.693379    1.060457
H      1.960313   -0.143961   -2.418748
H      1.124589    0.969931   -1.257890
H      3.119852    0.272757    2.274104
H      4.063587   -0.729545    1.156219
H     -3.669910   -0.906856   -0.946807
H     -2.948353   -0.235916   -2.444852
H      0.538761   -2.617982    1.233541
H     -1.114417   -2.536868    0.419028
H      0.835349    1.010140    0.760436
H      1.041002    0.461809    2.429906
H     -0.741738   -0.908117    2.361913
H      0.633538   -2.737065   -1.181765
H     -1.048114    1.198578    0.429330
H      2.588931   -1.688958   -0.785397
