62

C     -3.472759    3.822012    0.762817
C     -4.006727    2.650346    1.304857
C     -2.845413    3.750575   -0.467421
C      7.830221    0.877485    0.139459
C      6.938504    2.019318   -0.332478
C     -3.889078    1.471260    0.596387
C     -2.748065    2.558294   -1.142321
C     -0.114317   -1.821930   -1.035324
C     -0.487702    0.170587    0.143593
C     -4.802995   -1.738217   -1.569258
C     -3.657334   -2.450933    2.419166
C      1.241282   -1.703277   -0.788036
C      0.886920    0.292022    0.394872
C     -4.556767   -0.278706   -1.762119
C     -2.788760   -1.831792    1.538471
C      7.220407   -0.378611   -0.430476
C      5.899485    1.271152   -1.162582
C      5.277667    0.054488    0.812038
C      3.807476    0.399935    0.835166
C     -5.358276   -2.653123    0.721196
C     -3.270071    1.387140   -0.623069
C     -1.000927   -0.875986   -0.566856
C     -4.482771   -2.039969   -0.129137
C     -4.935314   -2.862827    2.023901
C      1.757718   -0.645229   -0.070385
C     -3.144625    0.171694   -1.373972
C     -3.202975   -1.623843    0.253216
C     -2.419308   -0.994909   -0.816148
N      5.809635   -0.024168   -0.521665
O     -5.776194   -3.476699    2.925113
O      3.131064   -0.604175    0.131156
H     -3.570502    4.744972    1.327756
H     -4.492632    2.730591    2.267127
H     -2.431027    4.674493   -0.882180
H      8.836286    1.065529   -0.292371
H      7.863274    0.788697    1.236705
H      7.491513    2.716910   -1.017924
H      6.472980    2.566697    0.505481
H     -4.297333    0.576808    1.010202
H     -2.237894    2.584076   -2.108030
H     -0.482092   -2.685607   -1.614343
H     -1.068809    0.973293    0.567732
H     -5.906475   -1.884458   -1.646188
H     -4.321635   -2.411266   -2.273339
H     -3.345705   -2.623392    3.440239
H      1.920258   -2.473249   -1.174558
H      1.283110    1.116731    0.953781
H     -5.324882    0.250238   -1.121236
H     -4.826783   -0.017430   -2.793229
H     -1.795790   -1.501837    1.811885
H      7.575362   -0.589118   -1.466910
H      7.385649   -1.264102    0.207268
H      6.384051    1.110653   -2.156825
H      4.942690    1.780024   -1.226043
H      5.844264    0.735855    1.476609
H      5.417986   -0.971259    1.263526
H      3.682067    1.361656    0.299354
H      3.429631    0.530489    1.870147
H     -6.338158   -2.951569    0.359953
H     -2.674410    0.416509   -2.383402
H     -2.495908   -1.761138   -1.673888
H     -5.759090   -4.481714    3.022543
