39

C     -3.528921   -2.615478   -0.216052
C     -2.702006    1.737069   -0.146958
C      0.984166    1.897732    0.565213
C     -3.672389   -1.154067    0.025038
C     -2.836397    0.849165    1.044171
C      5.466065    0.079756   -0.988048
C      4.984768    1.273662   -0.505889
C      4.584506   -0.977356   -1.070129
C      3.654666    1.415098   -0.112354
C      3.262592   -0.831789   -0.677502
C     -1.329498   -0.988240    0.683396
C      1.334634    0.449442    0.219143
C      2.771127    0.360093   -0.192803
C     -0.652474   -0.719762   -0.579187
N      0.454870   -0.119203   -0.740790
N     -2.665472   -0.547269    0.799911
O     -1.277522   -1.168039   -1.759440
H     -4.455086   -3.194036    0.052566
H     -3.432482   -2.799975   -1.327924
H     -2.708250   -3.124461    0.281822
H     -2.708507    2.794581    0.248070
H     -3.584635    1.576634   -0.792971
H     -1.776547    1.566534   -0.711617
H     -0.041932    1.976863    0.948914
H      1.227098    2.593898   -0.243501
H      1.639300    2.173928    1.442323
H     -4.640053   -1.027102    0.601326
H     -3.899037   -0.589946   -0.933033
H     -2.103563    1.141977    1.839996
H     -3.861023    0.994376    1.470648
H      6.505186   -0.044337   -1.299432
H      5.667422    2.103659   -0.439813
H      4.966241   -1.920118   -1.451805
H      3.280461    2.360582    0.267267
H      2.587541   -1.673476   -0.749996
H     -0.758948   -0.434145    1.500423
H     -1.173459   -2.058178    0.978188
H      1.188294   -0.107558    1.190583
H     -0.750734   -1.250513   -2.617371
