56

C      2.377448    2.128176    0.201170
C      7.509190    2.055007    0.507695
C     -6.190271    2.036334    0.291799
C     -5.537527   -0.821592   -0.537703
C     -6.779784   -0.306178    0.128183
C     -2.078977   -1.800235    0.657351
C     -1.408782   -1.003718   -1.481697
C      2.696520    0.839039    0.890835
C      6.436560    1.067393    0.892611
C     -0.813695   -1.641535   -0.238818
C     -3.230064   -1.762607   -0.290139
C     -4.481382   -1.242871    0.430839
C      5.114930    1.376218    0.228274
C      4.078196    0.372619    0.633067
C      2.683682   -0.584529   -0.904604
C      1.904114   -0.225083    0.092158
C      5.117575    0.807822   -1.164482
C      2.432627   -1.553667   -1.956433
N     -6.551756    0.829213    0.962063
N     -2.794147   -0.756038   -1.246012
N      3.933429    0.149209   -0.821458
O      6.286294    0.985730    2.282747
O     -4.981197   -2.130851    1.345257
O      5.922798    0.965831   -2.108676
O      3.339149   -1.733651   -2.840429
O      1.321162   -2.310249   -2.113983
S      0.331853   -0.684614    0.621304
H      2.508834    1.983417   -0.887692
H      2.937827    2.993216    0.594405
H      1.298127    2.381717    0.378008
H      8.084725    1.712635   -0.377544
H      8.224936    2.127042    1.348481
H      7.095147    3.089150    0.359199
H     -5.985585    1.850777   -0.776007
H     -5.280816    2.445087    0.771086
H     -6.969770    2.824726    0.422400
H     -5.768670   -1.613517   -1.259289
H     -5.108299    0.045325   -1.116170
H     -7.237980   -1.109922    0.713318
H     -7.502367    0.012346   -0.676412
H     -2.163807   -0.893425    1.321117
H     -2.025852   -2.736522    1.239771
H     -1.364626   -1.802189   -2.283480
H     -0.831213   -0.137966   -1.820728
H      2.396702    0.829801    1.944521
H      6.764345    0.071497    0.520618
H     -0.509764   -2.701761   -0.390479
H     -3.495828   -2.717914   -0.742184
H     -4.104950   -0.362684    1.018646
H      4.870410    2.428060    0.293268
H      4.419835   -0.495526    1.191287
H     -6.046250    0.628242    1.839228
H     -2.908337    0.177408   -0.782464
H      6.294683    0.042555    2.600943
H     -5.546255   -2.850781    0.969978
H      1.316852   -3.275970   -2.483919
