66

C     -8.794224   -0.942999    1.049885
C     -7.890832   -2.591977    2.639146
C      0.304273    3.714999   -1.516698
C      2.332738    3.326242   -2.840124
C      8.722512   -2.177562    2.270238
C      9.108435   -2.006309    0.956963
C      7.391946   -2.068102    2.616316
C     -4.495063   -0.926896   -1.485616
C      8.132705   -1.726475    0.018763
C      6.440427   -1.787097    1.652702
C     -5.137882   -0.285364   -0.449746
C     -3.142866   -0.737022   -1.650494
C     -3.051863    0.727143    0.237338
C      5.743085   -1.313309   -0.649206
C     -5.083170    1.224250    1.514833
C     -7.969061   -1.121603    2.300094
C      6.797695   -1.611122    0.332569
C     -4.418784    0.538806    0.408837
C     -2.419290    0.092880   -0.786002
C      5.485361    0.117581   -0.818625
C      3.185720   -0.184406   -0.154590
C      0.910320    1.365659   -2.159869
C      2.512217   -0.779222   -1.315811
C      1.932887    0.666884   -0.115326
C     -6.601009   -0.604250    2.068226
C     -0.542506    1.208217   -1.866412
C      1.422822    2.737079   -1.818112
N      4.331100    0.606334   -0.591856
N      1.716475    0.380705   -1.521244
O      6.487154    0.974473   -1.228932
O      2.589033   -1.873982   -1.911622
O     -5.603396   -1.361796    2.166640
O     -1.377853    1.997742   -2.375926
O     -6.385254    0.735816    1.735132
O     -1.061453    0.216126   -1.040471
S      2.292376    2.465145   -0.224002
H     -9.843904   -1.185518    1.223649
H     -8.379949   -1.589650    0.256210
H     -8.692865    0.129094    0.735652
H     -8.815577   -3.135133    2.321647
H     -7.747483   -2.678659    3.739105
H     -6.987924   -3.028485    2.163810
H      0.778176    4.628774   -1.055271
H     -0.380705    3.331300   -0.728577
H     -0.238102    4.033573   -2.437481
H      3.173835    2.650236   -3.084266
H      1.722805    3.577042   -3.731728
H      2.782746    4.244300   -2.409492
H      9.427339   -2.398584    3.058365
H     10.152566   -2.094118    0.696385
H      7.108320   -2.205294    3.649128
H     -5.007582   -1.573549   -2.174872
H      8.419588   -1.590523   -1.008376
H      5.392367   -1.709099    1.972908
H     -6.207286   -0.454324   -0.349383
H     -2.658305   -1.248967   -2.468577
H     -2.460686    1.360334    0.885501
H      6.050904   -1.793358   -1.605763
H      4.819743   -1.823257   -0.308796
H     -4.520391    1.096182    2.463129
H     -5.172317    2.303465    1.236570
H     -8.448315   -0.616375    3.174418
H      3.362278   -0.826208    0.709869
H      1.045483    1.280926   -3.280372
H      1.152572    0.386787    0.584381
H      6.307898    1.932498   -1.530281
