21

C     -2.884017    0.149363    0.343872
C     -0.894491    0.178291   -1.155860
C     -0.592994   -0.494676    1.164100
C     -1.576957   -0.041061    0.146184
C      0.552680   -0.077954   -0.906040
C      0.556483   -0.954596    0.325092
C      1.260696    1.207579   -0.676417
N      1.839087   -0.782037    0.975312
O      0.636030    2.300322   -0.709584
O      2.622696    1.276671   -0.417578
H     -3.305032   -0.036587    1.337547
H     -3.541704    0.482608   -0.449550
H     -1.103828    1.198719   -1.537630
H     -1.249342   -0.560403   -1.932909
H     -1.009995   -1.369524    1.728522
H     -0.341078    0.347832    1.840414
H      1.029491   -0.620086   -1.746059
H      0.387596   -1.999689    0.037260
H      2.564518   -1.056777    0.271540
H      1.909334   -1.300064    1.871356
H      3.140827    2.152067   -0.509572
