39

C     -4.622063    0.026541   -1.251947
C     -3.098388   -0.543442    2.361268
C      1.873588    2.292126   -0.360976
C     -3.439866    0.646944   -0.488318
C     -2.904436   -1.193603    1.009373
C      5.175790   -1.488506    0.573911
C      4.334856   -1.977655   -0.394365
C      5.003182   -0.241016    1.108489
C      3.297973   -1.177552   -0.824419
C      3.941808    0.550385    0.652719
C     -1.498931   -0.716134   -0.854492
C      1.911108    0.887606   -0.830626
C      3.093009    0.106637   -0.297956
C     -0.430128    0.328723   -1.092921
N      0.750831    0.112936   -0.733113
N     -2.538990   -0.308587   -0.014518
O     -0.758038    1.519911   -1.706711
H     -5.454336    0.758186   -1.280388
H     -4.913101   -0.936331   -0.832692
H     -4.300186   -0.122409   -2.323602
H     -2.966924   -1.344253    3.116341
H     -4.103746   -0.134125    2.435520
H     -2.294322    0.200638    2.523470
H      2.919088    2.641247   -0.091239
H      1.598820    2.971032   -1.238956
H      1.163283    2.507137    0.451647
H     -3.906882    1.275889    0.304312
H     -2.975826    1.329997   -1.221214
H     -2.197171   -2.046888    1.089559
H     -3.888910   -1.663631    0.762124
H      5.984054   -2.137187    0.897540
H      4.454005   -2.946028   -0.822876
H      5.676085    0.119054    1.863588
H      2.611888   -1.525057   -1.585607
H      3.834071    1.518778    1.107561
H     -0.980884   -1.626534   -0.430429
H     -1.887628   -1.026705   -1.854005
H      2.147990    0.956036   -1.962730
H     -0.610674    2.405840   -1.210302
