25

C     -3.025139   -0.825989   -0.345143
C      3.465123   -0.306764    0.172707
C      2.595646   -1.072749    0.929477
C      2.935813    0.430817   -0.850904
C      1.234966   -1.105390    0.676085
C      1.595338    0.398006   -1.099723
C     -1.672333   -0.636823    0.360037
C      0.706527   -0.369345   -0.345436
C     -0.697288   -0.302017   -0.731269
C     -1.249173    1.617733    0.329744
N     -1.034487    2.809702    0.757398
N     -1.800288    0.582927    1.130229
O     -1.005617    1.085819   -0.951311
H     -3.842737   -0.901413    0.372518
H     -3.123899    0.052404   -1.024817
H     -2.924460   -1.721743   -0.995555
H      4.539490   -0.293523    0.388255
H      3.025729   -1.660890    1.747399
H      3.596417    1.043171   -1.463350
H      0.579657   -1.698319    1.265595
H      1.234000    1.010498   -1.932849
H     -1.424715   -1.515668    0.949911
H     -0.858205   -0.897884   -1.635043
H     -0.639877    3.587736    0.219016
H     -2.210487    0.689704    2.077032
