66

C      8.382297    1.731292   -2.565215
C      9.246230    0.532977   -0.631482
C     -2.118146   -2.014837    2.365444
C     -0.022781   -2.447273    1.145603
C     -9.909948    1.762588    0.506825
C     -8.949905    1.282497    1.370395
C     -9.810408    1.411806   -0.821937
C      4.948024    0.820134    1.887249
C     -7.908742    0.468079    0.922673
C     -8.765884    0.594998   -1.269823
C      5.617651    0.003302    0.981886
C      3.602731    0.638578    2.101680
C      3.542367   -1.131906    0.559639
C     -6.701560   -0.744402   -0.858968
C      5.605163   -1.859468   -0.659673
C      8.447551    0.363270   -1.928551
C     -7.818470    0.123485   -0.407043
C      4.904693   -0.970954    0.322328
C      2.865705   -0.332237    1.451988
C     -5.540145    0.094586   -1.251308
C     -3.267893    0.779814   -1.023245
C     -0.886894   -0.091159    1.323399
C     -2.767613    1.627045    0.112068
C     -1.942930    0.083417   -0.807335
C      7.091273   -0.141176   -1.581897
C      0.521293    0.157053    0.985634
C     -1.244172   -1.553063    1.250985
N     -4.410693   -0.008992   -0.675680
N     -1.814909    0.646681    0.523695
O     -5.701031    1.015958   -2.277051
O     -3.121158    2.774504    0.488225
O      6.108292    0.579277   -1.835447
O      0.824516    0.947153    0.073997
O      6.885467   -1.371632   -0.992955
O      1.507930   -0.493428    1.688018
S     -2.091923   -1.680437   -0.372655
H      9.423110    2.054983   -2.746378
H      7.801021    1.738454   -3.509240
H      7.841287    2.393611   -1.849819
H     10.260209    0.866891   -0.915663
H      8.714754    1.323962   -0.038008
H      9.219782   -0.418435   -0.095981
H     -1.794436   -1.500801    3.295201
H     -1.979962   -3.098996    2.544074
H     -3.179471   -1.730884    2.214287
H     -0.424695   -3.466069    0.868881
H      0.622808   -2.152130    0.290591
H      0.512029   -2.569956    2.088863
H    -10.728938    2.399299    0.840896
H     -9.032656    1.560708    2.411140
H    -10.553541    1.778181   -1.515451
H      5.531380    1.588145    2.401069
H     -7.154878    0.089775    1.595102
H     -8.724766    0.344168   -2.318532
H      6.687709    0.146248    0.813911
H      3.066142    1.277969    2.813920
H      3.005341   -1.904078    0.029068
H     -7.078431   -1.317015   -1.747354
H     -6.432407   -1.501569   -0.104737
H      4.971529   -2.061659   -1.537910
H      5.738177   -2.838021   -0.141034
H      8.989352   -0.303340   -2.624778
H     -3.265273    1.273503   -2.003877
H     -1.012050    0.200161    2.397171
H     -1.147607    0.323848   -1.512593
H     -5.181490    1.905518   -2.286957
