52

C     -3.105889   -2.455171    1.537418
C     -1.419119    5.048628   -1.411708
C      5.019161   -3.434573   -0.289427
C      1.581181    2.055766    2.053855
C      0.059536   -2.348695   -1.284535
C     -0.893385   -2.270502   -0.057227
C     -3.776014    0.716564   -0.131761
C     -3.674859   -0.145046    1.134465
C      2.412829   -2.192783   -0.656068
C     -2.068160    2.431564   -0.736267
C      1.249053   -1.552152   -0.791318
C     -2.389073    1.164651   -0.411760
C     -1.879249   -1.188290   -0.101433
C     -0.746217    2.788007   -0.963191
C      3.487540   -1.524678   -0.055217
C     -1.384261    0.202282   -0.300079
C      1.136326   -0.226140   -0.332427
C     -0.057437    0.605270   -0.527357
C      0.290602    1.879166   -0.866697
C      3.339266   -0.208132    0.398655
C      2.135759    0.461742    0.263400
N     -2.825517   -1.226632    0.931810
O      1.582111    2.217338   -1.117070
O      4.448022    0.405906    0.992714
O     -0.388011    4.093826   -1.303972
O      4.698305   -2.137292    0.101490
O      1.986526    1.722948    0.731996
H     -3.944593   -2.334664    2.258632
H     -2.243944   -2.839367    2.091187
H     -3.484955   -3.190458    0.776807
H     -2.190081    4.646904   -2.126219
H     -1.887610    5.160466   -0.397322
H     -1.060917    6.033850   -1.723767
H      4.449863   -3.827389   -1.130465
H      4.951286   -4.102472    0.616244
H      6.103605   -3.484609   -0.585817
H      2.358462    2.690576    2.538179
H      1.300155    1.185756    2.645928
H      0.684451    2.710127    1.941499
H      0.418107   -3.392375   -1.370385
H     -0.394414   -1.923802   -2.175346
H     -1.421330   -3.259677   -0.083754
H     -0.266003   -2.310003    0.851956
H     -4.470115    1.567063    0.017961
H     -4.106834    0.078618   -0.991590
H     -4.716151   -0.509733    1.333135
H     -3.343446    0.534912    1.938091
H      2.508965   -3.211338   -1.009062
H     -2.817842    3.202497   -0.829663
H     -2.484095   -1.369841   -1.072344
H      1.923551    3.122058   -1.418373
H      5.314857   -0.060669    1.096194
