61

C      6.133422   -1.939719   -0.942885
C     -6.426123    1.621308   -0.282951
C     -6.843751   -0.283636    1.017746
C     -6.007938   -0.449919   -1.233525
C      5.960824   -1.412678    0.465904
C      6.733020   -0.197504    0.756698
C      6.597887    1.033346   -0.010130
C      5.285852    1.708170   -0.042817
C      4.208440    0.938287   -0.708754
C      2.937910    1.800287   -0.676650
C      1.826949    1.091044   -1.350414
C      1.478302   -0.200572   -0.702548
C      1.124227    0.017017    0.741808
C     -0.021967    0.962159    0.874143
C     -3.594937   -1.960034    0.674937
C     -4.629466    0.385693    0.587708
C     -3.523372   -0.538901    0.267282
C     -4.632740   -2.830399    0.202733
C     -1.234770    0.460182    0.220133
N     -5.909166    0.241736    0.009596
O     -5.619721   -3.159855    0.891211
O     -4.573431   -3.361440   -1.092777
O     -1.381131    0.455203   -1.026410
O     -2.316170   -0.047763    0.960610
H      5.536818   -2.886382   -0.992134
H      7.187858   -2.218746   -1.148507
H      5.715988   -1.284413   -1.716269
H     -5.955720    2.327976    0.404380
H     -6.138919    1.911712   -1.312863
H     -7.527098    1.592230   -0.166673
H     -7.486800    0.521193    1.443378
H     -7.422456   -1.106662    0.564695
H     -6.289080   -0.716181    1.885815
H     -5.074127   -0.754267   -1.704125
H     -6.582872    0.174309   -1.999591
H     -6.651047   -1.367587   -1.132844
H      6.502585   -2.243578    1.087709
H      4.958801   -1.478073    0.876012
H      7.838681   -0.509758    0.705707
H      6.526403    0.060169    1.843229
H      7.345414    1.776632    0.459309
H      7.011132    0.941485   -1.068612
H      5.355021    2.694786   -0.606122
H      4.913789    1.954518    0.999131
H      3.922869   -0.007452   -0.286473
H      4.446556    0.824420   -1.801185
H      2.711353    2.009118    0.400416
H      3.155550    2.791762   -1.116416
H      2.072054    0.849773   -2.430027
H      0.972438    1.798581   -1.433172
H      2.322258   -0.911185   -0.796111
H      0.577644   -0.684763   -1.183031
H      0.876045   -0.990019    1.183569
H      2.019381    0.339870    1.332898
H     -0.177513    1.173242    1.958251
H      0.197397    1.963605    0.424966
H     -3.568689   -2.018723    1.822905
H     -2.545783   -2.382836    0.447568
H     -4.778718    0.508349    1.701171
H     -4.258034    1.424122    0.267559
H     -3.281327   -0.409239   -0.805265
