75

C      1.863024   -2.045916    1.768793
C      4.153117   -1.232221    1.647503
C     -0.884139    4.544451    1.472272
C     -1.602810    3.500836    2.004392
C     -0.620943    4.534511    0.126581
C     -2.041874    2.470290    1.174268
C     -1.055892    3.514203   -0.691405
C      6.666472    1.662089    0.747460
C      5.337366    2.799449    2.305767
C      5.587987    1.404402   -0.055211
C      4.235303    2.547492    1.506990
C     -5.212589   -3.394902   -0.167658
C     -6.379663   -4.211351   -0.639178
C     -2.257132    1.435057   -1.118699
C      2.632896   -1.088791   -0.386662
C      0.667576    0.348530   -0.210568
C     -4.572562   -2.581094   -3.033337
C      3.052561   -1.809216    0.841578
C     -1.789668    2.438923   -0.179133
C      6.594457    2.360051    1.945865
C      4.347752    1.849919    0.321706
C     -5.380139   -2.087484   -0.867343
C     -1.573073    0.131581   -1.187419
C     -0.087596    0.267740   -1.534191
C     -4.173662   -1.805904   -1.790038
C     -6.456824   -2.361361   -1.855368
C     -2.420262   -1.934915   -0.101836
N      7.740795    2.603115    2.756735
N     -1.829820   -0.832656   -0.227748
N      2.061742    0.177454   -0.297000
O      0.211975   -0.990783   -2.119399
O     -2.398914   -2.601572    1.166872
O      3.429646    1.471969   -2.096853
O      2.029916    2.763161   -0.529826
O     -7.258447   -3.273643   -1.157693
O     -5.866297   -2.956687   -2.952307
O     -3.057358   -2.427905   -1.211493
S      2.947164    1.548624   -0.657216
H      2.158860   -2.781195    2.551138
H      1.581964   -1.074420    2.196569
H      1.008992   -2.445287    1.192828
H      3.924267   -0.291068    2.148720
H      5.094188   -1.171036    1.077292
H      4.385077   -2.005717    2.451446
H     -0.529185    5.359595    2.119104
H     -1.809348    3.508294    3.059468
H     -0.045638    5.379252   -0.268767
H     -2.614055    1.633740    1.585629
H     -0.824023    3.554000   -1.724666
H      7.678799    1.324131    0.490977
H      5.229372    3.348241    3.228670
H      5.694709    0.860458   -0.982156
H      3.274710    2.925202    1.856446
H     -5.295854   -3.258938    0.934875
H     -4.255495   -3.900745   -0.396673
H     -6.848525   -4.768599    0.197998
H     -6.113234   -4.944170   -1.439881
H     -2.344482    1.855303   -2.176307
H     -3.355637    1.258556   -0.871640
H      1.950918   -1.825410   -0.923423
H      3.573891   -0.981955   -1.035915
H      0.480983    1.363378    0.189256
H      0.139184   -0.377817    0.450035
H     -3.936675   -3.497084   -3.170746
H     -4.421380   -1.962969   -3.954777
H      3.354570   -2.841967    0.519415
H     -5.578251   -1.228892   -0.204074
H     -1.958090   -0.344161   -2.194892
H      0.196254    1.039806   -2.181390
H     -4.119999   -0.739219   -1.977924
H     -7.035302   -1.445209   -2.082621
H      8.453631    1.839652    2.799248
H      7.814601    3.501889    3.252389
H     -0.040731   -0.998030   -3.084052
H     -1.509148   -2.605054    1.649201
