24

C     -0.641146   -1.790856    0.205901
C     -1.636474   -0.879620   -0.525456
C      0.660696   -1.336710   -0.401169
C      1.434284   -0.249538    0.301630
C      0.480136    0.120610   -0.781447
C      2.886441   -0.274852    0.035804
C     -1.538096    1.536133   -1.121997
C     -0.910275    0.461009   -0.353641
N     -0.933361    0.746936    1.068063
O      3.325153   -0.528441   -1.105489
O      3.790958   -0.016675    1.052014
O     -1.605565    1.452347   -2.373817
O     -2.052733    2.638591   -0.454623
H     -0.649364   -1.470664    1.260798
H     -0.862357   -2.845726    0.066041
H     -2.593578   -0.901942   -0.000930
H     -1.706628   -1.166958   -1.587666
H      1.161242   -1.955435   -1.170456
H      1.134201   -0.013933    1.350685
H      0.824391    0.459783   -1.771591
H     -0.593376    1.705796    1.284305
H     -1.910956    0.628694    1.411710
H      4.680097    0.443825    0.871959
H     -2.743690    3.237627   -0.900486
