91

C     14.052151    1.416426   -0.683310
C     12.565447    2.579223    1.421907
C     -9.874124    2.560028    0.796511
C     12.555769    1.126127   -0.533894
C     -9.332401   -2.016663   -1.312753
C     -9.793629   -0.900053    0.714245
C    -10.569247   -2.619837   -1.259965
C    -11.042836   -1.508157    0.766968
C      5.223937   -0.853961    0.817400
C      5.792384   -0.072996   -1.323366
C      6.477795   -0.527330    1.283448
C      7.059172    0.259060   -0.859642
C     -1.337015   -1.173021   -0.943708
C     -0.943799   -0.773707    1.334838
C     -2.695644   -1.174300   -0.756853
C     -2.315579   -0.773245    1.532076
C      2.947205   -2.290140   -0.878905
C      2.731926    0.059875   -1.583571
C      1.719089   -2.151960    0.000650
C      1.451123    0.259095   -0.814761
C     -5.263494   -0.777370    1.901791
C     -6.919464   -2.140533    0.795776
C     -7.379075    0.203592   -1.714364
C     -8.451139    4.531217    0.481965
C      9.042206    0.466375    2.295967
C     12.228226    1.192623    0.929412
C     -8.922357   -1.137358   -0.313715
C    -11.448590   -2.381259   -0.227111
C      4.842784   -0.638141   -0.494335
C     -0.429894   -0.973352    0.092387
C      7.445434    0.049867    0.440370
C     -3.229064   -0.967431    0.524132
C     -6.771824   -0.851242    1.598073
C     -8.282970    2.994578   -1.073511
C      9.838028    0.624938    0.331260
C     -7.552747   -0.517945   -0.424106
Cl   -13.031816   -3.153469   -0.167622
N     -7.553427    4.976017   -0.412208
N     10.337229    0.772850    2.427716
N     -7.461364    4.055388   -1.332033
N     -8.888149    3.326177    0.071246
N      3.550479   -0.979905   -0.973726
N      0.951452   -0.973953   -0.245866
N      8.715244    0.370548    0.983978
N     10.851990    0.876933    1.214328
O      9.970815    0.634121   -0.916485
O     -4.604416   -0.970270    0.692002
O     -6.627846   -1.621724   -0.494920
O     -7.142773    0.120126    0.702165
S     -8.482368    1.539935   -2.062763
H     14.546468    0.466270   -1.029018
H     14.524802    1.657425    0.296247
H     14.218372    2.226060   -1.418193
H     12.377320    3.331578    0.597022
H     13.612209    2.672396    1.797664
H     11.825284    2.852587    2.211788
H     -9.424904    2.131358    1.693917
H    -10.681837    3.312414    1.061310
H    -10.309866    1.842472    0.081347
H     12.015843    1.934476   -1.098003
H     12.321164    0.183676   -1.023862
H     -8.640245   -2.203430   -2.126407
H     -9.524807   -0.237730    1.503849
H    -10.884039   -3.306669   -2.036115
H    -11.744785   -1.332485    1.575984
H      4.460940   -1.300996    1.466934
H      5.521553    0.111862   -2.375997
H      6.757753   -0.700105    2.313813
H      7.764563    0.697839   -1.554458
H     -0.925096   -1.337142   -1.948175
H     -0.249519   -0.619708    2.143554
H     -3.406320   -1.328710   -1.556931
H     -2.712982   -0.611298    2.525465
H      2.545585   -2.568924   -1.898319
H      3.601289   -3.062626   -0.473788
H      3.270858    1.034168   -1.528546
H      2.556351   -0.169189   -2.643128
H      1.106174   -3.088269   -0.185156
H      2.080369   -2.260553    1.056141
H      0.670517    0.661256   -1.482714
H      1.564471    0.963596    0.038324
H     -5.077361   -1.663078    2.552393
H     -5.039666    0.180514    2.381493
H     -6.183744   -2.902064    1.027836
H     -7.944377   -2.544944    0.844463
H     -7.512072   -0.577183   -2.522311
H     -6.294156    0.472510   -1.806439
H     -8.723541    5.110777    1.364392
H      8.367903    0.322218    3.127381
H     12.860052    0.458121    1.475613
H     -7.293357   -0.884266    2.548558
