45

C     -4.794339   -2.649313    0.253053
C      4.756589    2.220269   -0.105790
C      0.800842   -0.288759   -0.144608
C      1.740899   -0.897350   -1.234129
C     -5.049753   -0.290194   -0.257196
C     -5.405597    1.958446    0.825014
C      4.218577   -0.698637    0.346319
C     -3.847132    3.114221   -0.132001
C      7.735541    0.242048    0.479419
C     -4.174122   -1.248909    0.561433
C      5.834275    1.237928    0.171158
C     -4.720824    1.109846   -0.065941
C      5.607928   -0.132055    0.297749
C     -1.664452   -0.764759    0.372375
N     -1.620612   -0.117944    1.431316
N     -4.860547    3.156592    0.765106
N     -0.456847   -0.947966   -0.390199
N      7.151033    1.407200    0.292946
N     -3.779019    1.855725   -0.627330
N      6.782704   -0.719874    0.483283
N     -2.869373   -1.341638   -0.051112
S      3.375674   -0.300249   -1.192650
H     -5.651452   -2.568635   -0.400850
H     -5.092559   -3.183933    1.192460
H     -4.063355   -3.298458   -0.254371
H      5.152424    3.232202    0.027506
H      3.933578    2.046225    0.577067
H      4.452451    2.184684   -1.186336
H      1.213803   -0.539016    0.864667
H      0.771887    0.810446   -0.287828
H      1.643720   -2.017473   -1.066064
H      1.178469   -0.654870   -2.178842
H     -6.107763   -0.509219   -0.024741
H     -4.926246   -0.551615   -1.353962
H     -6.253023    1.714159    1.460415
H      3.640932   -0.407728    1.212021
H      4.367311   -1.850835    0.375315
H     -3.261030    3.989822   -0.356727
H      8.805423    0.091972    0.614362
H     -4.209430   -1.003552    1.594891
H     -0.828923    0.322508    1.879252
H     -0.559744   -1.633582   -1.209968
H     -3.061422    1.585735   -1.359080
H      6.950507   -1.739438    0.636034
H     -2.857004   -1.924027   -0.949340
