45

C     -3.453261   -0.174843   -1.168968
C      6.040043    1.738666   -0.239357
C      1.255912   -0.753403   -0.238890
C      2.370823    0.100127   -0.757149
C     -4.395015   -0.100236    1.157480
C     -6.479055   -0.504768   -0.292001
C      4.350271   -0.229565    1.415972
C     -7.562919    1.362937    0.098735
C      6.611847   -1.770613   -0.929860
C     -3.382309    0.475696    0.190670
C      6.139049    0.251839   -0.323990
C     -5.717044    0.227179    0.568432
C      5.333141   -0.655852    0.362039
C     -1.013496   -0.235731    0.791940
N     -1.281868   -1.399874    1.162961
N     -7.613186    0.205026   -0.573188
N      0.315590    0.160676    0.427629
N      6.932176   -0.454111   -1.122663
N     -6.419016    1.372084    0.786492
N      5.626200   -1.872831   -0.014064
N     -2.078638    0.725261    0.711974
S      3.240251    0.921891    0.548787
H     -3.970824    0.409999   -1.939465
H     -2.396718   -0.312813   -1.535007
H     -3.892567   -1.219572   -1.065255
H      6.909099    2.201660   -0.715333
H      5.170194    2.001075   -0.920607
H      5.892154    2.105430    0.775705
H      1.564195   -1.518726    0.453165
H      0.758063   -1.188288   -1.132510
H      1.901180    0.840801   -1.478817
H      3.060598   -0.567425   -1.357337
H     -4.238756   -1.199479    1.146813
H     -4.238959    0.311886    2.149575
H     -6.278742   -1.472238   -0.722363
H      4.800086    0.179232    2.314217
H      3.756130   -1.151844    1.708650
H     -8.319057    2.124778    0.053489
H      7.109249   -2.559499   -1.482325
H     -3.791120    1.555462   -0.047070
H     -0.543648   -2.121437    1.217320
H      0.564351    1.144985    0.648283
H     -6.055085    2.147146    1.410825
H      5.216970   -2.794361    0.310176
H     -1.796291    1.693673    1.082047
