41

C     -3.936089   -1.661133   -1.346007
C      4.893456   -1.556198    0.709066
C     -4.443768    1.569914    1.925456
C     -3.264910    2.130002    2.361369
C     -4.453264    0.577958    0.938543
C     -2.077709    1.683940    1.795897
C      0.268985   -0.580899   -2.178877
C     -0.615911   -1.550224   -1.494563
C      2.418903   -0.433423   -0.932041
C      4.136857    1.982941    1.090934
C     -2.990822   -0.793651   -0.564053
C      4.366702   -0.152729    0.694114
C      1.087437    0.204439   -1.170492
C     -3.269313    0.154592    0.396838
C      3.292315    0.312054   -0.018827
C     -1.630507   -0.804713   -0.707389
C     -2.067378    0.706500    0.821871
C      0.340905    0.289364    0.122692
N      4.866645    0.907553    1.370523
N      3.153637    1.634784    0.229729
N     -1.083997    0.115250    0.140886
O      0.896045    0.507349    1.194532
H     -4.962903   -1.250245   -1.206540
H     -3.919067   -2.697272   -1.022285
H     -3.676867   -1.566097   -2.425502
H      5.267177   -1.837359   -0.315003
H      4.132536   -2.254611    1.040338
H      5.752763   -1.609683    1.409068
H     -5.369880    1.904358    2.359133
H     -3.250576    2.900231    3.126322
H     -5.402007    0.156699    0.618167
H     -1.145732    2.096657    2.112270
H     -0.280171    0.127290   -2.828710
H      1.016581   -1.129409   -2.824553
H      0.001818   -2.103799   -0.724540
H     -1.058713   -2.315683   -2.156440
H      2.921018   -0.731354   -1.888793
H      2.184758   -1.434090   -0.438640
H      4.315474    2.974302    1.495099
H      1.152736    1.243073   -1.545777
H      2.432836    2.283321   -0.163813
