41

C      3.553315   -2.417953    0.018760
C     -4.780383    0.329674   -0.629014
C      4.463249    2.096631   -0.187703
C      3.323329    2.840436   -0.325060
C      4.336034    0.722708   -0.114010
C      2.094790    2.224101   -0.386476
C     -0.839249   -1.980183   -1.052395
C      0.357357   -2.344359   -0.228162
C     -2.200889   -0.861037    0.656821
C     -3.210307    2.361872    1.937724
C      2.708412   -1.224103   -0.123079
C     -3.948431    0.970842    0.449432
C     -1.467193   -0.678116   -0.670444
C      3.116611    0.083821   -0.173323
C     -2.814603    0.453967    1.023448
C      1.323692   -1.223208   -0.232608
C      1.990249    0.849649   -0.310985
C     -0.483453    0.394337   -0.479354
N     -4.179531    2.156050    1.028695
N     -2.368105    1.323912    1.942110
N      0.901459    0.040793   -0.346064
O     -0.839471    1.590469   -0.432768
H      4.577043   -2.136860    0.314156
H      3.576732   -2.990977   -0.936627
H      3.096663   -3.102932    0.782810
H     -4.639001   -0.769153   -0.525743
H     -5.849298    0.524068   -0.451669
H     -4.406705    0.675941   -1.597325
H      5.437717    2.588612   -0.138232
H      3.385702    3.935183   -0.387179
H      5.216930    0.080449   -0.004086
H      1.202281    2.825023   -0.495364
H     -0.543397   -1.914198   -2.134988
H     -1.617092   -2.767733   -0.910007
H      0.025975   -2.560730    0.816846
H      0.806913   -3.250422   -0.692495
H     -2.988341   -1.610439    0.485841
H     -1.508484   -1.233929    1.436930
H     -3.091827    3.235643    2.594390
H     -2.210480   -0.408839   -1.438158
H     -1.508213    1.170990    2.532139
