60

C     -0.971872   -0.635589   -3.374484
C     -1.404047   -1.843502    1.377474
C     -6.548195    3.399249    0.001853
C     -1.224049   -1.678916   -2.315260
C      6.697702    0.697233    1.560808
C      5.814945   -0.306513    2.269106
C      5.909118    1.453076    0.492584
C      1.000840    0.176144   -1.166617
C      4.565401   -0.499552    1.436970
C      4.616478    1.984162    1.059725
C      2.386501    0.394665   -0.639841
C     -4.212035   -0.080168   -0.966341
C     -4.487666   -0.842845    1.242122
C     -4.956773    1.031810   -0.655755
C     -5.232644    0.272773    1.545602
C      0.290949   -0.975667   -0.549683
C     -3.187572   -2.259070   -0.280488
C     -1.712955   -2.172563   -0.076169
C     -3.961312   -1.048946   -0.012064
C      3.782946    0.817580    1.512008
C     -5.491324    1.252005    0.596396
C      2.499380    0.706005    0.784714
N     -1.041199   -1.237570   -0.969022
O      1.482716    0.886329    1.428402
O     -6.245278    2.373324    0.911018
H     -1.015731    0.387195   -2.974975
H     -1.862202   -0.677225   -4.083884
H     -0.119037   -0.857728   -4.037889
H     -0.431276   -2.283441    1.655776
H     -2.133991   -2.376266    2.056010
H     -1.424166   -0.789909    1.623360
H     -5.759078    4.192830    0.127198
H     -7.528370    3.839345    0.302100
H     -6.642028    3.082654   -1.041080
H     -0.503486   -2.521548   -2.500532
H     -2.266021   -2.015675   -2.445810
H      7.137074    1.436901    2.249871
H      7.473323    0.129567    1.009944
H      5.491329    0.120630    3.232221
H      6.307427   -1.273768    2.427581
H      6.552256    2.288267    0.184941
H      5.743034    0.805637   -0.390320
H      1.161830   -0.009048   -2.278469
H      0.434213    1.124648   -1.120768
H      4.768973   -0.811806    0.414742
H      3.895451   -1.258214    1.927086
H      4.129109    2.592992    0.283150
H      4.881991    2.671819    1.889694
H      3.006091   -0.536675   -0.810090
H      2.860868    1.162521   -1.298817
H     -3.797186   -0.249113   -1.940999
H     -4.351896   -1.551593    2.074346
H     -5.142084    1.792695   -1.439116
H     -5.640622    0.423173    2.530415
H      0.851056   -1.936754   -0.660770
H      0.260649   -0.790436    0.547959
H     -3.525921   -3.010202    0.525637
H     -3.477527   -2.758123   -1.200757
H     -1.279287   -3.168404   -0.280212
H      3.575180    0.961604    2.586211
