55

C     -1.200138    4.390533   -0.124977
C     -4.239045   -1.982244    1.297844
C      5.416904   -0.838329    0.421134
C     -1.704772    3.716716   -1.215546
C     -0.618284    3.635349    0.886087
C     -2.964104   -2.721309    0.992561
C     -4.550597   -1.008252    0.190690
C      4.665448    0.334028    0.971269
C      4.955502   -1.067254   -1.000304
C     -1.643956    2.346020   -1.317725
C     -0.557285    2.264738    0.784533
C     -2.169040   -2.033994   -0.133877
C     -3.474862    0.030835   -0.027046
C      0.315654   -0.417051    0.052763
C      3.198230    0.039915    0.955160
C      3.462165   -1.243005   -1.089473
C      1.483667    0.141496   -0.766092
C     -1.065871    1.610874   -0.311516
C     -2.128630   -0.578328    0.205468
C     -0.993919    0.131709   -0.414918
N      2.720299   -0.357590   -0.305275
O     -1.037485   -0.173783   -1.802183
Cl     0.688005    0.000000    0.000000
H     -1.255195    5.487909   -0.054492
H     -4.249594   -1.522462    2.308335
H     -5.060255   -2.757885    1.245688
H      5.358336   -1.732165    1.045618
H      6.502069   -0.542920    0.329932
H     -2.168372    4.311027   -2.022407
H     -0.219439    4.185024    1.752238
H     -3.136303   -3.772378    0.667162
H     -2.335226   -2.687403    1.929443
H     -4.742713   -1.606155   -0.725083
H     -5.505312   -0.467044    0.385030
H      4.855121    1.190404    0.262575
H      4.956494    0.595243    2.007763
H      5.291974   -0.218808   -1.634843
H      5.416763   -2.006859   -1.389099
H     -2.060266    1.844702   -2.211315
H     -0.089573    1.685533    1.602387
H     -1.220915   -2.562152   -0.177392
H     -2.725323   -2.230607   -1.083948
H     -3.662460    0.826926    0.746518
H     -3.632472    0.467877   -1.012474
H      0.368533   -1.503098   -0.107219
H      0.495035   -0.260708    1.142191
H      2.999235   -0.775073    1.685225
H      2.630415    0.937920    1.293293
H      3.172767   -1.156352   -2.157928
H      3.263049   -2.322830   -0.812190
H      1.329825   -0.053439   -1.844106
H      1.511325    1.260215   -0.658991
H     -1.984423   -0.542166    1.337709
H     -1.972979   -0.293351   -2.098198
H     -0.688005    0.000000    0.000000
