58

C      2.752229    1.444637    0.488205
C     -2.190294    3.825274    1.155975
C     -4.521716   -2.329502   -0.529552
C      5.153486   -0.109910   -0.516274
C     -1.566575    3.623239   -0.053218
C     -2.356087    2.739857    1.977302
C     -4.519338   -0.841435   -0.495228
C     -3.331442   -3.012690    0.047257
C      4.966744   -0.112764    0.973685
C      3.891821    0.044688   -1.282636
C     -1.106659    2.355321   -0.457812
C     -1.912857    1.488451    1.601560
C     -3.158776   -0.268701   -0.915696
C     -2.030970   -2.316748   -0.394731
C      0.063441   -0.726099    0.955063
C      3.643888   -0.508104    1.462331
C      2.700662   -0.634450   -0.606224
C      1.334662   -0.184517    1.389987
C     -1.277268    1.278749    0.365551
C     -2.167415   -0.904104    0.050679
C     -0.830025   -0.095018   -0.026009
N      2.492164    0.003544    0.639522
O     -0.509760   -0.206419   -1.353898
I      0.000000    0.000000    0.000000
H      3.809096    1.697397    0.446416
H      2.369205    1.894338    1.456025
H      2.126919    1.871272   -0.316372
H     -2.543267    4.825552    1.452642
H     -5.413747   -2.669028    0.070199
H     -4.653681   -2.640736   -1.592925
H      5.823534    0.739808   -0.762111
H      5.695037   -1.022959   -0.871589
H     -1.421172    4.458063   -0.724749
H     -2.848808    2.881299    2.919587
H     -5.338247   -0.500586   -1.181648
H     -4.680565   -0.436188    0.550789
H     -3.332044   -2.911536    1.173899
H     -3.327952   -4.070643   -0.280625
H      5.320145    0.821436    1.465021
H      5.705612   -0.887449    1.359872
H      3.581226    1.084990   -1.507767
H      3.998314   -0.457848   -2.281285
H     -0.621153    2.277082   -1.440817
H     -2.033934    0.630025    2.253871
H     -3.180429    0.819406   -0.860784
H     -2.939838   -0.685039   -1.916104
H     -1.193314   -2.879351    0.008352
H     -2.072501   -2.361824   -1.517266
H     -0.545846   -0.895066    1.930649
H      0.160246   -1.820425    0.627290
H      3.438693   -0.154046    2.476462
H      3.527945   -1.623486    1.480667
H      1.915518   -0.592945   -1.360965
H      3.075421   -1.705813   -0.475779
H      1.674271   -0.748880    2.352497
H      1.069536    0.824173    1.917898
H     -2.575258   -0.849433    1.052163
H     -0.088873    0.535143   -1.802048
