53

C     -2.843761    4.224061   -0.130293
C     -3.271816   -2.876585   -0.297125
C      5.216082   -0.593978    0.426588
C     -2.040766    3.985063   -1.224838
C     -2.933571    3.292131    0.881922
C     -2.106926   -2.755252   -1.271644
C     -3.434434   -1.556835    0.428305
C      4.441915    0.481243    1.107356
C      4.288030   -1.553432   -0.257023
C     -1.333518    2.807794   -1.295211
C     -2.199698    2.098319    0.780675
C     -1.006159   -1.929990   -0.569066
C     -2.935490   -0.422752   -0.492761
C      0.107187    0.647883    0.993854
C      3.114832    0.702983    0.429065
C      2.997985   -1.624725    0.539904
C      1.140205   -0.405927    1.298611
C     -1.411548    1.867797   -0.296900
C     -1.469001   -0.497483   -0.687384
C     -0.556698    0.582233   -0.328755
N      2.231955   -0.409090    0.387241
O      0.404618    0.846677   -1.306984
H     -3.425680    5.131841   -0.019592
H     -4.241824   -3.089421   -0.816710
H     -3.111809   -3.685801    0.460321
H      5.954447   -0.107877   -0.255203
H      5.807878   -1.150385    1.213037
H     -1.964605    4.727524   -2.023324
H     -3.567895    3.489610    1.747107
H     -2.465865   -2.272584   -2.187218
H     -1.741189   -3.759162   -1.516343
H     -4.521488   -1.351704    0.570153
H     -2.938811   -1.549621    1.407387
H      4.325697    0.306072    2.193064
H      4.972138    1.486231    1.015240
H      4.748440   -2.567428   -0.210935
H      4.126277   -1.320376   -1.333150
H     -0.710756    2.649231   -2.161750
H     -2.346683    1.438681    1.620869
H     -1.055260   -2.336356    0.466611
H     -0.079805   -2.121732   -1.110642
H     -3.412748    0.495819   -0.232029
H     -3.488370   -0.714894   -1.488378
H     -0.594330    0.735046    1.860331
H      0.662317    1.636091    1.010912
H      2.665416    1.599026    0.963111
H      3.336549    0.984570   -0.636639
H      3.343822   -1.730570    1.613050
H      2.417126   -2.538497    0.318052
H      1.609963   -0.176221    2.317341
H      0.656449   -1.365058    1.457501
H     -1.424377   -0.431556   -1.918585
H      0.065552    0.679365   -2.215941
