32

C     -1.432424    2.037921   -1.959525
C     -0.558113    2.313294   -0.736401
C      3.592313   -1.614594    1.142891
C      3.486521   -1.962749   -0.192794
C      2.762727   -0.614901    1.608127
C      2.594007   -1.350605   -1.051429
C     -2.608953   -1.693399   -0.183479
C     -2.961318   -1.005455    1.111071
C      0.849112    1.099881    0.953070
C      1.865112    0.004479    0.755660
C      1.760266   -0.341809   -0.571965
C     -1.217841    0.086894   -0.004826
C     -0.041174    0.980371   -0.265293
N     -1.411593   -1.013561   -0.602260
N     -2.277450    0.282018    0.903579
O      0.803279    0.402137   -1.236553
H     -2.428666    1.698689   -1.606535
H     -0.951003    1.312276   -2.641471
H     -1.554627    2.986828   -2.551325
H     -1.206909    2.783545    0.006122
H      0.251181    3.018604   -0.971271
H      4.311476   -2.131056    1.766589
H      4.143577   -2.756909   -0.568166
H      2.821924   -0.315133    2.663388
H      2.515988   -1.631872   -2.108357
H     -3.425128   -1.606452   -0.931360
H     -2.329426   -2.760295   -0.010157
H     -4.047502   -0.863083    1.220298
H     -2.500571   -1.567920    1.950739
H      0.316521    0.992778    1.896652
H      1.416501    2.050336    0.860461
H     -2.537807    1.179743    1.354519
