53

C     -1.845578    4.334360   -0.006437
C     -4.133838   -2.536846   -1.051588
C      5.489505   -0.811579    0.218464
C     -2.411179    3.581326    1.011636
C     -1.020527    3.772192   -0.961114
C     -3.013778   -2.911048   -0.103761
C     -4.374598   -1.045056   -1.066044
C      4.365909   -1.528456    0.898781
C      5.157323    0.636978    0.054003
C     -2.122443    2.241851    1.042566
C     -0.733004    2.425071   -0.925225
C     -1.781719   -2.090698   -0.295877
C     -3.441180   -0.333872   -0.105810
C      0.360204   -0.173727   -0.333745
C      3.054398   -1.315427    0.179570
C      3.747586    0.970351    0.438961
C      1.471030    0.482459    0.446136
C     -1.286085    1.660312    0.078371
C     -2.023449   -0.637301   -0.571176
C     -1.000554    0.212806    0.151447
N      2.763787    0.062029   -0.071187
O     -1.099431   -0.128224    1.518931
H     -2.057819    5.373868   -0.055384
H     -5.056273   -3.017807   -0.677904
H     -3.952765   -2.945918   -2.070886
H      5.721500   -1.246973   -0.776251
H      6.408297   -0.974642    0.830874
H     -3.052970    4.054367    1.753509
H     -0.574045    4.363915   -1.759480
H     -3.393002   -2.954216    0.927688
H     -2.751428   -3.977418   -0.373031
H     -4.106684   -0.692078   -2.081991
H     -5.404319   -0.765533   -0.835560
H      4.337817   -1.202101    1.964425
H      4.610257   -2.612443    0.856732
H      5.408095    1.037092   -0.957212
H      5.834062    1.200551    0.758334
H     -2.562724    1.649202    1.840634
H     -0.092479    1.937044   -1.646170
H     -1.164382   -2.233493    0.636239
H     -1.124612   -2.491669   -1.112631
H     -3.605614   -0.791966    0.879029
H     -3.678492    0.742492   -0.148804
H      0.504399   -1.286113   -0.211872
H      0.531166    0.023117   -1.394132
H      3.179607   -1.816078   -0.822583
H      2.232059   -1.887113    0.663513
H      3.653792    0.981275    1.548654
H      3.503565    1.974997    0.029384
H      1.405458    1.582807    0.204135
H      1.418635    0.292585    1.533847
H     -1.940474   -0.475964   -1.654398
H     -0.353005   -0.709286    1.795209
