41

C     -4.710382   -2.882906   -0.663020
C      5.166769    0.206596    1.161795
C      4.813800   -0.449128   -1.178769
C     -3.654853   -2.128741   -0.364075
C     -4.420954    2.322587   -0.230229
C     -3.152227    2.750657   -0.579065
C     -3.720327   -1.180900    0.771216
C     -4.619562    1.033349    0.213304
C     -2.040447    1.931819   -0.505203
C      2.458943    0.599403    0.285628
C      0.134040   -0.251959   -0.164438
C      4.438218   -0.754416    0.232653
C     -3.522352    0.223706    0.286958
C      0.990891    0.650264    0.652880
C     -2.219331    0.640851   -0.064047
N      3.036674   -0.696986    0.524533
O      0.829836    0.342828    2.018150
O     -1.206771   -0.237716    0.043517
H     -5.635538   -2.838538   -0.106619
H     -4.621598   -3.563666   -1.500664
H      5.074389    1.211059    0.695487
H      6.237031   -0.026621    1.257345
H      4.649017    0.166789    2.149246
H      4.115784   -0.860729   -1.939263
H      5.048958    0.630429   -1.366587
H      5.797676   -0.973540   -1.371418
H     -2.740570   -2.196222   -0.936653
H     -5.281986    2.989918   -0.297235
H     -2.990663    3.779693   -0.933578
H     -2.963970   -1.426511    1.554514
H     -4.704729   -1.278081    1.262414
H     -5.613212    0.690997    0.489684
H     -1.071109    2.338679   -0.808111
H      2.594739    0.901051   -0.778758
H      2.972404    1.366729    0.901458
H      0.581779   -1.291918   -0.094489
H      0.332528    0.012591   -1.248803
H      4.767621   -1.813040    0.443572
H      0.675723    1.696020    0.528476
H      2.583191   -1.382089   -0.153962
H      1.590567   -0.252306    2.234376
