32

C     -2.035254    1.198752   -0.474090
C     -2.279982   -1.109292    0.143739
C      2.275040    1.024320   -2.025396
C      0.215626   -2.565447    0.549424
C     -1.247323   -0.087550   -0.356180
C      1.652504    0.433513   -1.049449
C      0.968588    1.014317    0.105123
C      1.510471   -1.009450   -0.886445
C      0.563825    2.383857    0.060494
C      0.823898   -1.240123    0.448686
C     -0.068294   -0.019530    0.509012
O      1.847882   -1.953669   -1.628382
O      0.777757    3.112257   -0.934011
O     -0.092350    2.981310    1.128414
O      1.795111   -1.095035    1.452920
O     -0.414665    0.218188    1.829750
H     -2.350199    1.583670    0.516606
H     -1.633792    1.926159   -1.171326
H     -3.027502    0.890678   -0.939603
H     -2.171579   -2.092414   -0.314592
H     -3.315130   -0.737614   -0.143272
H     -2.293292   -1.161591    1.234045
H      2.399892    2.100837   -2.156066
H      2.753642    0.454600   -2.845249
H      1.055418   -3.282080    0.873138
H     -0.561590   -2.733616    1.285784
H     -0.012122   -2.965741   -0.481635
H     -0.974784   -0.406949   -1.374916
H      1.734580    0.934660    0.954851
H     -0.098979    3.995212    1.263359
H      1.807610   -1.881169    2.033232
H      0.394995    0.088937    2.392037
