41

C     -3.890967    1.894018   -0.908092
C      3.286267   -0.251151   -1.789574
C      5.337118    0.964553   -1.166266
C     -4.310703    0.682018   -0.573945
C     -3.273376   -3.308546    1.504017
C     -2.163634   -2.897059    2.171969
C     -3.609263   -0.537242   -1.032849
C     -3.718671   -2.522340    0.468681
C     -1.512561   -1.740370    1.825173
C      2.039575    1.650064    0.396073
C     -0.368376    1.048309    0.586659
C      3.794803    1.029518   -1.202409
C     -3.110022   -1.376929    0.092182
C      1.048079    0.527878    0.318710
C     -1.955325   -0.938993    0.777961
N      3.372129    1.365521    0.095045
O      1.372840   -0.508933    1.162159
O     -1.364157    0.184123    0.407578
H     -3.006320    2.003991   -1.537362
H     -4.385198    2.782807   -0.585011
H      2.474654   -0.113253   -2.549242
H      4.137184   -0.665076   -2.422858
H      3.038142   -1.023453   -1.053473
H      5.646141    0.259231   -1.982490
H      5.712854    1.994484   -1.329343
H      5.659994    0.627511   -0.166059
H     -5.188516    0.595292    0.050711
H     -3.831751   -4.202858    1.721988
H     -1.784555   -3.499260    2.997693
H     -2.777365   -0.298397   -1.731326
H     -4.340028   -1.133478   -1.628204
H     -4.609077   -2.821229   -0.091527
H     -0.645736   -1.487829    2.436031
H      1.999869    2.082167    1.436439
H      1.701866    2.485521   -0.288513
H     -0.365358    1.478812    1.642383
H     -0.472041    1.991943   -0.052364
H      3.553958    1.860475   -1.933279
H      1.039435    0.143268   -0.728886
H      4.076806    1.886716    0.662232
H      1.391284   -0.211825    2.102927
