54

C     -3.284457   -3.802160    1.884984
C     -2.335809   -3.966741   -0.783499
C      5.593960    3.325947    0.675661
C      5.197900   -1.344494   -2.281146
C     -5.186405    1.771575    1.030016
C     -0.524438    3.919896   -1.184746
C     -3.189286   -2.386686    1.343349
C      1.993693    1.205302    0.508112
C      3.174803    1.933016    0.584396
C      3.011937   -0.374801   -0.890454
C     -2.849312    0.095813    0.644175
C     -0.602803    1.290073   -0.464915
C     -1.435503   -2.918085   -0.323931
C      1.872027    0.061697   -0.210253
C     -1.850856   -2.074175    0.786457
C     -1.729620   -0.638181    0.442285
C     -0.615330   -0.023096   -0.111350
C      4.276740    1.475980   -0.097556
C      4.205459    0.302468   -0.850945
C     -2.852284    1.455886    0.287542
C     -1.729116    2.051784   -0.267023
C      0.666306   -0.703832   -0.366730
N     -0.320309   -2.842495   -1.004211
N      0.730046   -1.934888   -0.791013
O      5.489160    2.133356   -0.078764
O      5.323674   -0.149834   -1.534286
O     -3.981699    2.215346    0.487732
O     -1.703642    3.385613   -0.627192
H     -3.913212   -4.471723    1.303015
H     -2.283313   -4.251657    1.999324
H     -3.754266   -3.733991    2.903375
H     -3.399089   -3.652211   -0.846453
H     -2.092621   -4.226173   -1.868673
H     -2.186919   -4.941223   -0.266243
H      4.817679    4.063183    0.364404
H      6.587825    3.807196    0.553238
H      5.397083    3.100349    1.739601
H      5.154494   -2.247498   -1.649236
H      6.105446   -1.374271   -2.949972
H      4.333560   -1.255427   -2.976755
H     -5.194798    1.885940    2.145991
H     -5.994251    2.466793    0.660120
H     -5.497586    0.770149    0.730648
H      0.311282    3.950887   -0.456966
H     -0.267398    3.299519   -2.072055
H     -0.777925    4.945901   -1.556816
H     -4.026879   -2.220812    0.636917
H     -3.431903   -1.734910    2.242606
H      1.181205    1.619491    1.112245
H      3.214623    2.836828    1.169792
H      2.948118   -1.286843   -1.472936
H     -3.766987   -0.256038    1.051716
H      0.304053    1.683120   -0.941484
H     -1.113056   -2.240865    1.637901
