42

C      4.601984   -0.005530    1.263994
C     -0.529987   -0.567028    2.194452
C     -2.807558   -2.941075    0.101800
C      3.509440   -0.664822    0.452779
C     -0.885069    4.199683   -0.215433
C      0.197407    3.664300   -0.899628
C     -1.731774    3.366507    0.459252
C      0.439573    2.314393   -0.916533
C     -1.464148    1.996630    0.427997
C     -0.665129   -0.581228   -1.595974
C     -1.827311   -1.476551   -1.418362
C     -0.619194   -2.225407    0.471130
C     -0.910208   -0.746565    0.777843
C     -0.391455    1.457353   -0.248779
C      2.183529   -0.027371    0.645978
C     -0.133389    0.023978   -0.265706
N     -1.562140   -2.610113   -0.560544
O      1.921706    0.796220    1.518692
O      1.176029   -0.373253   -0.210893
H      4.486370    1.091546    1.261249
H      5.614391   -0.240162    0.806959
H      4.649652   -0.358814    2.299003
H     -1.423722   -1.002689    2.776801
H     -0.454406    0.447413    2.573481
H      0.355558   -1.184425    2.424031
H     -2.670323   -3.133521    1.194428
H     -3.542019   -2.122857    0.030975
H     -3.210938   -3.860829   -0.359866
H      3.798960   -0.710143   -0.614669
H      3.467041   -1.747627    0.796647
H     -1.089841    5.271045   -0.183981
H      0.825262    4.386032   -1.408455
H     -2.573377    3.788307    0.995202
H      1.313138    2.000265   -1.474205
H     -2.179118    1.394315    0.985112
H     -0.949998    0.227943   -2.305252
H      0.140633   -1.159256   -2.114858
H     -1.992767   -1.945195   -2.443111
H     -2.754112   -0.945572   -1.209739
H      0.405321   -2.318694    0.030514
H     -0.701747   -2.840586    1.365399
H     -2.016264   -0.636615    0.614730
