34

C     -2.386668    0.520595   -1.306371
C     -3.638994    0.710441    0.820173
C      1.291027   -0.030997    1.031432
C      2.209292   -0.430794   -1.128746
C      2.301687    0.857938    1.313942
C      3.232441    0.471590   -0.837560
C     -0.910351   -1.766056    0.448225
C     -2.759283   -0.210097   -0.068193
C      1.234819   -0.672887   -0.170126
C      3.267987    1.100404    0.368598
C      0.174476   -1.642011   -0.533769
N     -1.781722   -0.741624    0.762142
N      4.307951    2.027513    0.686018
O     -0.253343   -1.380417   -1.798370
O      4.353203    2.664384    1.895037
O      5.222531    2.297569   -0.125651
Cl     0.687295    0.000000    0.000000
H     -3.085021    1.418255   -1.371265
H     -2.542955   -0.116972   -2.196678
H     -1.380225    0.968729   -1.298222
H     -3.804978    0.153464    1.761490
H     -3.034556    1.628877    0.992687
H     -4.589858    0.936368    0.326578
H      0.531495   -0.234516    1.752423
H      2.225634   -0.905622   -2.102609
H      2.316236    1.347887    2.272705
H      4.018108    0.697074   -1.550332
H     -0.547672   -2.224959    1.428406
H     -1.558830   -2.639506    0.064284
H     -3.465157   -1.036827   -0.386580
H      0.683074   -2.660880   -0.582572
H     -1.844622   -0.474588    1.777141
H      0.214277   -0.632335   -2.244238
H     -0.687295    0.000000    0.000000
