37

C      3.839376    1.673376    0.395417
C      3.633776    0.259974    0.963925
C     -4.250556   -0.399487    0.417899
C      0.669804   -1.719725   -1.323805
C     -3.008075   -0.926470    0.562412
C     -0.479552   -1.915539   -0.376402
C     -4.408585    0.945927    0.207079
C      2.739004   -0.429236   -0.061077
C      0.863638   -0.233261   -1.425062
C     -2.003033    1.174692    0.298226
C      0.620928   -0.045081    0.944884
C     -1.848621   -0.153110    0.506247
C     -0.569379   -0.874407    0.713675
C     -3.269731    1.728112    0.148540
N      1.455513    0.241295   -0.211086
O     -3.442978    3.075130   -0.062538
H      4.536463    2.185284    1.083858
H      4.302371    1.529834   -0.605975
H      2.850765    2.121804    0.305237
H      3.079928    0.320083    1.915538
H      4.591068   -0.271514    1.067371
H     -5.141419   -1.009371    0.462651
H      0.349116   -2.077367   -2.339618
H      1.576584   -2.253530   -1.054621
H     -2.937216   -1.994442    0.718240
H     -1.406592   -1.965763   -0.988097
H     -0.346130   -2.963359    0.032784
H     -5.407615    1.394594    0.087939
H      2.468573   -1.414282    0.443350
H      3.241013   -0.684842   -0.984546
H     -0.078714    0.280977   -1.690675
H      1.611783   -0.044661   -2.243794
H     -1.124256    1.775259    0.253859
H      0.340855    0.935724    1.387504
H      1.276900   -0.517878    1.705655
H     -0.760809   -1.492869    1.647536
H     -3.564196    3.744129    0.688481
