30

C      3.941954    0.166567    0.758246
C     -2.896528    1.032293    0.426849
C     -1.873601    0.174741   -1.489221
C     -2.175045   -1.186623    0.382196
C      0.852286   -0.748008   -1.004801
C     -0.580638    0.513275    0.520131
C      2.800760    0.317410   -0.223378
C      0.587051    0.586307   -0.393767
C      2.268017   -1.026526   -0.579081
N     -1.820105    0.160506   -0.061137
O      2.852162   -2.095811   -0.532219
O      1.706071    0.943973    0.346069
H      4.040907    1.023720    1.435505
H      4.891221    0.010665    0.185573
H      3.786313   -0.770410    1.369159
H     -3.756438    0.882118   -0.234259
H     -2.540826    2.074221    0.322502
H     -3.148176    0.754320    1.453576
H     -1.556221   -0.783664   -1.954512
H     -2.965600    0.269811   -1.767588
H     -1.389195    1.057720   -1.955962
H     -1.425985   -1.567180    1.131278
H     -3.164352   -1.239833    0.846070
H     -2.124367   -1.905212   -0.476100
H      0.249459   -1.574568   -0.586637
H      0.836135   -0.721057   -2.119946
H     -0.697452    1.529247    0.994135
H     -0.298458   -0.153014    1.378151
H      3.138934    0.879066   -1.110701
H      0.461718    1.395943   -1.167502
