46

C     -0.600532   -1.206083   -2.513312
C      0.578391   -2.306328    2.380309
C     -2.099075    3.166114    0.586102
C     -1.536700   -1.243254   -1.378003
C     -0.393288   -1.937114    1.318020
C      2.114969    1.199695   -1.522401
C      3.186957    0.335874   -1.552038
C     -0.303424    0.458762    1.793481
C     -1.594228    1.187707    1.872023
C     -0.123687    1.770688   -0.780510
C      2.091470   -1.199072   -0.117955
C      1.013402    0.854617   -0.776141
C      3.189192   -0.858551   -0.859948
C     -1.387273   -0.334640   -0.245736
C      1.010599   -0.362538   -0.066629
C     -1.447325    1.121834   -0.520472
C     -0.222374   -0.593864    0.699306
N     -2.034146    1.753576    0.631637
O      4.314616   -1.708693   -0.924672
Cl     0.683174    0.000000    0.000000
H     -0.484975   -0.212530   -2.997135
H     -1.087137   -1.820409   -3.337417
H      0.358155   -1.738745   -2.351082
H      0.041418   -2.513280    3.371829
H      1.061032   -3.278977    2.166413
H      1.387433   -1.568575    2.568728
H     -2.207918    3.484928   -0.471080
H     -1.270412    3.696360    1.074964
H     -3.039495    3.488672    1.104034
H     -2.571571   -1.073532   -1.811800
H     -1.590589   -2.291394   -1.009976
H     -1.424076   -1.931476    1.780130
H     -0.401617   -2.747769    0.559137
H      2.179577    2.125024   -2.091720
H      4.092990    0.566613   -2.134709
H     -0.163404   -0.053011    2.795749
H      0.525783    1.189182    1.765286
H     -2.383762    0.512535    2.266373
H     -1.480813    1.998735    2.611080
H      0.080684    2.593836   -0.074258
H     -0.138471    2.289889   -1.788863
H      2.064470   -2.120173    0.412844
H     -2.283239   -0.577336    0.419156
H     -2.118520    1.314020   -1.377157
H      5.096914   -1.431316   -1.473587
H     -0.683174    0.000000    0.000000
