34

C      4.440363   -0.606979    0.187860
C      4.148085    0.454579   -0.605829
C      3.424975   -1.363445    0.727759
C     -2.345107   -1.020658   -1.155823
C     -3.460765   -0.520892   -0.268110
C      2.842524    0.802282   -0.891155
C      2.098737   -1.016157    0.442279
C     -1.160795   -1.301894   -0.321433
C     -2.956303    0.531874    0.662974
C      1.801796    0.047108   -0.352717
C     -0.568772   -0.109149    0.316401
C      0.420047    0.445042   -0.679138
C     -0.951021    2.144671    0.064710
N     -1.410698    3.322008    0.345871
N     -1.592615    0.913754    0.358207
O      0.255895    1.864990   -0.576725
Cl     0.684263    0.000000    0.000000
H     -2.336320    3.414785    0.833617
H      5.462417   -0.863868    0.399898
H      4.968800    1.035233   -1.019408
H      3.612595   -2.216267    1.364389
H     -2.644221   -1.854826   -1.793909
H     -2.030247   -0.190216   -1.821990
H     -4.272958   -0.120866   -0.909493
H     -3.893164   -1.379352    0.284916
H      2.659480    1.656508   -1.528734
H      1.335669   -1.631103    0.881096
H     -0.837569   -1.877085   -0.334238
H     -0.463344   -2.060297   -0.700825
H     -3.026036    0.199148    1.719622
H     -3.616144    1.435136    0.584601
H     -0.111173   -0.269227    1.299433
H      0.205871    0.135166   -1.716162
H     -0.684263    0.000000    0.000000
