54

C     -1.051737    4.808725   -1.187803
C     -1.502341   -0.330873   -2.000962
C     -3.442810   -2.548998   -1.351705
C     -3.331885   -3.053276    1.008753
C     -0.189291    3.656302   -1.604990
C      5.196240   -0.744438   -0.551195
C      0.480970    0.952703    4.033793
C      4.514138   -1.529021    0.347418
C      4.477198   -0.009520   -1.494063
C     -0.738181    0.667677    3.502037
C      1.554816    0.954067    3.167078
C      3.120512   -1.581353    0.306925
C      3.106517   -0.077085   -1.514823
C     -0.880681    0.395582    2.164432
C      1.424830    0.679031    1.804246
C      0.950854   -0.931742   -0.702573
C     -1.698182   -1.672829    0.100164
C     -1.364180   -0.345796   -0.502044
C      2.390967   -0.870036   -0.610193
C      0.198229    0.388785    1.268117
C     -0.424170    2.461739   -0.738646
C      0.058516    0.090191   -0.143134
N     -3.050381   -2.130259   -0.047615
O     -1.259142    2.551152    0.197884
O      0.234909    1.291789   -0.937340
H     -2.122306    4.563952   -1.420847
H     -0.831580    5.687892   -1.851750
H     -0.952842    5.079265   -0.125576
H     -1.158507   -1.190795   -2.540014
H     -0.843374    0.532384   -2.345038
H     -2.551000   -0.082363   -2.280740
H     -2.613344   -2.901132   -2.000491
H     -4.055232   -1.829923   -1.925471
H     -4.098505   -3.491274   -1.283183
H     -4.091268   -2.653335    1.735450
H     -2.447759   -3.264831    1.650975
H     -3.713213   -3.991981    0.562712
H     -0.512010    3.358769   -2.640309
H      0.857760    3.990552   -1.588021
H      6.291365   -0.674295   -0.559674
H      0.567427    1.169845    5.085061
H      5.113753   -2.082724    1.064127
H      5.031584    0.591381   -2.187999
H     -1.605459    0.663917    4.172204
H      2.514727    1.183504    3.593053
H      2.632445   -2.207934    1.035058
H      2.570259    0.483345   -2.234671
H     -1.868228    0.211748    1.793483
H      2.349103    0.757170    1.251024
H      0.680746   -1.164069   -1.778199
H      0.619145   -1.930454   -0.196824
H     -1.105400   -2.491740   -0.486563
H     -1.322117   -1.789702    1.125748
H     -2.111885    0.400308   -0.137287
