51

C     -1.216004   -1.782865    1.985289
C     -2.164653   -1.431189   -0.120409
C      3.472360   -0.683424    0.713167
C      3.440206   -1.121461   -1.605968
C     -2.974995    4.982745   -0.617786
C     -4.023362    2.912163   -0.084210
C     -0.371920    2.665009    0.757195
C     -1.621948   -0.886796    1.020596
C      2.816603   -0.595246   -0.501573
C     -4.082178    4.199900   -0.563417
C     -1.644766    3.244382    0.287925
C     -1.730662    4.509111   -0.188148
C     -1.334464   -3.137724    1.841702
C     -2.294837   -2.798229   -0.288613
C      4.711558   -1.274699    0.839598
C      4.698052   -1.720623   -1.472466
C     -2.789430    2.453031    0.337952
C     -0.388420    1.172748    0.390056
C     -1.885373   -3.677735    0.682351
C      5.348276   -1.806287   -0.258940
C     -1.473328    0.554084    1.222875
C      1.507813    0.043762   -0.560931
O     -5.299309    4.694394   -0.995097
O     -0.625019    5.327823   -0.254548
O     -0.925610   -4.038645    2.813124
O     -2.847845   -3.278771   -1.457651
O      5.355765   -1.355109    2.064657
O      5.350498   -2.259047   -2.566077
O     -1.998300   -5.076207    0.554596
O      6.610923   -2.412818   -0.150830
O      0.925122    0.115429   -1.673694
O     -2.679055    1.181022    0.822967
O      0.856666    0.577994    0.513669
H     -0.779530   -1.385386    2.906419
H     -2.497247   -0.737563   -0.907330
H      2.987533   -0.268247    1.602965
H      2.947060   -1.062799   -2.558588
H     -3.039490    6.009942   -1.003605
H     -4.905353    2.297260   -0.043961
H      0.534855    3.144668    0.392849
H     -0.429678    2.663815    1.885076
H     -0.725005    1.133000   -0.668571
H     -1.364753    0.793315    2.314267
H     -5.548287    4.566041   -1.968338
H      0.288317    5.061506    0.037230
H     -1.004605   -5.026968    2.724638
H     -3.002936   -4.224979   -1.716319
H      6.249414   -1.772133    2.203582
H      4.897723   -2.209201   -3.461254
H     -2.387063   -5.483467   -0.261286
H      7.056679   -2.795525   -0.973880
