52

C     -7.658317   -1.053372    0.950629
C      7.206582    0.600701    1.873736
C     -7.232934   -1.972231    0.027348
C      7.903332   -0.007532    0.861127
C      1.236617    1.264658   -1.615989
C      1.359916   -0.191844   -1.879843
C     -6.743574   -0.145958    1.481303
C      5.844397    0.601529    1.913969
C     -5.906061   -1.961366   -0.342187
C      7.186980   -0.625204   -0.126435
C     -4.388637    0.779783    1.623214
C     -3.579955    1.323193    0.472973
C      0.341935    1.742731   -0.548085
C      1.866643   -1.049813   -0.772425
C     -1.532752    0.183920   -0.297799
C     -5.423960   -0.145000    1.105119
C     -3.055643    0.260813   -0.435057
C      5.072695   -0.021612    0.918690
C     -5.001193   -1.081038    0.167080
C      5.800213   -0.618614   -0.075713
C      3.651939   -0.103289    0.796661
N     -1.027592    1.464682   -0.565328
N      3.197421   -0.785288   -0.332855
O      2.841439    0.401658    1.648286
O      4.714214   -0.753420   -2.541848
O      4.681505   -2.823764   -1.165763
O     -3.641527   -1.029268   -0.178391
S      4.608170   -1.331675   -1.164403
H     -8.671656   -0.979176    1.304544
H      7.777646    1.099221    2.672281
H     -7.913077   -2.678596   -0.395519
H      8.981208    0.007660    0.854149
H      2.274650    1.691179   -1.395387
H      0.992100    1.816041   -2.588093
H      0.433743   -0.561579   -2.358296
H      2.103090   -0.264060   -2.768202
H     -7.037916    0.598794    2.215063
H      5.379832    1.103857    2.747831
H     -5.554867   -2.693009   -1.077664
H      7.653862   -1.128819   -0.960501
H     -4.821760    1.647769    2.158684
H     -3.679766    0.205902    2.268399
H     -2.715820    1.877364    0.945044
H     -4.158609    2.087020   -0.111051
H      0.429908    2.891807   -0.525499
H      0.723469    1.450718    0.476797
H      1.823275   -2.112741   -1.158373
H      1.118446   -0.984465    0.054685
H     -1.139258   -0.684649   -0.800859
H     -1.395453    0.000082    0.825337
H     -3.239140    0.469276   -1.511790
H     -1.685758    2.217028   -0.779585
