42

C      3.643526    0.002336    0.442709
C     -3.828487    1.074274    0.049119
C      3.525420    1.331294   -0.233511
C     -3.959039   -0.141645   -0.826572
C     -2.673957    0.945973    1.024090
C      2.985134   -1.122994   -0.287039
C      2.447331    1.268596   -1.309368
C     -3.176831   -1.319663   -0.346586
C      0.282529   -0.933968    1.423580
C      0.784919    1.208357    0.338502
C     -0.268779    0.411928    1.075020
C      0.607871   -1.619609    0.092186
C     -1.500419    0.391470    0.234781
C      1.574279   -0.811647   -0.731037
C     -0.708285   -1.798338   -0.577371
N      1.280043    0.570460   -0.821732
N     -1.772535   -0.935055   -0.239528
O     -0.931613   -2.692282   -1.444236
H      4.746879   -0.241876    0.474946
H      3.355066    0.039084    1.533303
H     -4.745075    1.299440    0.618479
H     -3.590581    1.985914   -0.573842
H      4.469987    1.603303   -0.790440
H      3.361881    2.179244    0.466319
H     -3.581429    0.121005   -1.841447
H     -5.027269   -0.437331   -0.945096
H     -2.882463    0.272379    1.858010
H     -2.391545    1.972400    1.344879
H      2.977400   -2.004523    0.394565
H      3.652381   -1.387516   -1.150677
H      2.162248    2.286596   -1.625721
H      2.896787    0.725436   -2.166335
H     -3.503922   -1.588486    0.699136
H     -3.342561   -2.155136   -1.028214
H     -0.526571   -1.538968    1.876405
H      1.161680   -0.808874    2.050863
H      0.265673    2.157556    0.008321
H      1.528563    1.526446    1.077591
H     -0.451534    0.957709    2.037062
H      1.071259   -2.607870    0.275487
H     -1.412725    1.046034   -0.676271
H      1.494766   -1.231453   -1.780328
