36

C     -4.367316    0.747164   -0.958662
C      0.637067   -0.976652    2.228567
C     -3.024198    1.457897   -1.093089
C      3.755481    1.995544   -0.078150
C      2.514773    2.363588   -0.551170
C      3.860089    0.857960    0.683290
C      1.372094    1.611621   -0.275446
C      2.716776    0.127832    0.944648
C     -0.590429   -2.736926   -1.775784
C      0.894426   -2.575312   -0.200170
C      0.330542   -0.404115    0.841877
C      1.469860    0.476941    0.482803
C     -0.778355   -1.534030   -1.077137
C     -1.832106   -0.604486   -1.431073
N      0.449746   -3.349674   -1.204979
N      0.145127   -1.455464   -0.113096
O     -2.614750   -0.853731   -2.380905
O     -1.994518    0.572696   -0.730049
Cl     0.691870    0.000000    0.000000
H     -4.217444   -0.337576   -0.755242
H     -4.938908    1.138222   -0.089767
H     -4.963141    0.913588   -1.880430
H     -0.344268   -1.303996    2.680789
H      1.034673   -0.200911    2.894878
H      1.256684   -1.879464    2.150058
H     -3.029164    2.302665   -0.397960
H     -2.915038    1.825453   -2.134549
H      4.641146    2.579920   -0.292871
H      2.427617    3.256127   -1.149543
H      4.813982    0.538684    1.070665
H      0.406669    1.898944   -0.643922
H      2.857384   -0.767119    1.554607
H     -1.172926   -3.109648   -2.620949
H      1.737148   -2.835815    0.433317
H     -0.538725    0.260074    0.987922
H     -0.691870    0.000000    0.000000
