30

C      3.445404   -0.113120    0.141526
C      2.577885    1.060063   -0.179937
C      2.776783   -1.393132   -0.316375
C     -1.990082    1.192087    0.614351
C     -3.079042    0.205763    0.964025
C      1.157832    0.913262    0.341016
C      1.514458   -1.533685    0.507236
C     -1.501761    0.523530   -0.683079
C     -3.674061   -0.073908   -0.352020
C     -0.653844   -0.616073   -0.349737
N     -2.787329    0.105755   -1.254765
N      0.646064   -0.421538    0.155011
O     -5.017145   -0.474511   -0.536488
O     -1.044257   -1.818324   -0.497883
H      4.423267    0.034986   -0.315344
H      3.561449   -0.156236    1.248684
H      2.519883    1.200891   -1.297117
H      3.002259    1.967840    0.287221
H      2.571320   -1.338339   -1.400546
H      3.486511   -2.229842   -0.096675
H     -1.220275    1.279799    1.372257
H     -2.452496    2.154840    0.312114
H     -3.804490    0.621219    1.691125
H     -2.610589   -0.735803    1.335735
H      0.543947    1.650289   -0.183098
H      1.166166    1.136134    1.431710
H      1.833404   -1.495266    1.574343
H      1.012087   -2.507318    0.327502
H     -1.030199    1.225675   -1.362883
H     -5.373150   -0.365035   -1.481088
