55

C      1.566413   -3.151906   -3.147004
C     -2.864646    0.090592    5.049609
C     -1.257331   -1.682685    5.027448
C      5.175117    4.733903   -3.086960
C     -4.330947   -2.055907   -0.635043
C     -4.232625   -1.472933   -1.859333
C     -3.234556   -1.991675    0.210109
C     -3.080466   -0.836797   -2.253470
C      2.606007    1.516722   -2.056321
C      1.135791    3.034696   -0.970568
C      3.439155    2.568699   -2.391289
C      1.969526    4.066441   -1.308737
C     -2.013291   -0.654718    3.007087
C     -1.522678   -1.818168    2.174515
C      2.096813   -2.228887   -2.098467
C      1.436683    1.710982   -1.341030
C      3.150157    3.855493   -2.033018
C     -2.072963   -1.357870   -0.169988
C     -1.959268   -0.758936   -1.418628
C      1.128674   -0.588339   -0.385104
C      0.498879    0.690550   -0.940584
C      0.303291   -1.104245    0.738079
N     -2.397829   -1.088970    4.348978
N     -1.102236   -1.425994    0.860965
O      3.388941   -2.165663   -1.925986
O      0.942165   -1.308813    1.789639
O      3.958029    4.897453   -2.349141
O      1.428929   -1.455472   -1.308855
S     -0.650328    0.130182   -2.227910
H      2.315730   -3.896246   -3.454194
H      1.172110   -2.531981   -3.966941
H      0.695561   -3.717812   -2.711756
H     -2.269122    0.164388    5.985933
H     -3.943424    0.018247    5.309261
H     -2.617855    1.021856    4.488132
H     -1.132449   -2.710415    4.669086
H     -0.349264   -1.044091    4.947688
H     -1.493183   -1.724291    6.111558
H      5.948269    4.217012   -2.446134
H      4.942052    4.048711   -3.923837
H      5.505801    5.723406   -3.409811
H     -5.213300   -2.567886   -0.268439
H     -5.112713   -1.538890   -2.501062
H     -3.310235   -2.448465    1.178107
H     -3.098611   -0.402714   -3.247101
H      2.880572    0.531933   -2.352556
H      0.223092    3.257607   -0.399898
H      4.348530    2.356944   -2.958491
H      1.730352    5.090853   -1.016385
H     -1.260050    0.136973    3.143024
H     -2.876239   -0.188018    2.496691
H     -0.518483   -2.054126    2.714035
H     -2.010049   -2.768333    2.320474
H      2.074788   -0.188829    0.107872
H     -0.137286    1.066433   -0.114247
