22

C     -1.574280   -0.400303    1.145688
C     -1.040569    1.627717   -0.095545
C      0.753385   -0.066143    0.377303
C      1.667358    0.470633   -0.636309
C     -0.699418    0.180148    0.058503
N      0.920543   -1.495165    0.549252
O      1.646167    1.697583   -0.902498
O      2.577764   -0.300580   -1.340727
S     -1.127478   -0.663370   -1.508961
Cl     0.689135    0.000000    0.000000
H     -0.943709   -0.883877    1.896440
H     -2.285980   -1.165078    0.737587
H     -2.207685    0.388231    1.624012
H     -0.625542    2.265526    0.694784
H     -2.162058    1.701587   -0.074407
H     -0.762051    2.009343   -1.121496
H      0.963642    0.401303    1.359448
H      1.620261   -1.713251    1.288922
H      1.272508   -1.895502   -0.368211
H      2.767758   -0.131043   -2.339860
H     -0.760616   -2.027760   -1.343923
H     -0.689135    0.000000    0.000000
