22

C     -1.001003   -0.945101   -1.211339
C     -1.018046    1.302604   -0.186821
C      0.668409   -0.401680    0.529079
C      1.702558   -0.014442   -0.456981
C     -0.730846   -0.160502    0.033989
N      0.823920    0.253936    1.789621
O      1.688377   -0.514863   -1.610805
O      2.715157    0.890684   -0.182428
S     -1.860747   -0.735611    1.357146
Cl     0.686818    0.000000    0.000000
H     -2.100148   -1.113850   -1.320590
H     -0.592468   -0.426264   -2.114461
H     -0.522008   -1.945418   -1.099541
H     -0.331356    1.769728   -0.900169
H     -2.061702    1.375935   -0.551675
H     -0.992358    1.794149    0.809209
H      0.764274   -1.504271    0.691344
H      0.950887   -0.400673    2.580226
H      1.487400    1.038909    1.764320
H      2.970112    1.611935   -0.870309
H     -2.560413   -1.875204    0.950186
H     -0.686818    0.000000    0.000000
