42

C     -4.886465    1.430368    2.816631
C      5.101021   -0.464607   -2.415981
C      4.036626    1.279198   -3.831916
C     -4.219249    1.110545    3.904214
C     -4.074960   -2.366430    0.897754
C     -3.211155   -2.490517   -0.187919
C     -3.741246   -1.480748    1.912749
C     -2.055874   -1.738215   -0.228787
C     -2.912655    0.467484    4.009410
C      2.416039    0.343268   -1.482373
C      0.284272   -0.299956   -0.434006
C      4.546937    0.957347   -2.452744
C      1.494890    0.595094   -0.320500
C     -2.587446   -0.738282    1.858257
C     -1.719202   -0.858475    0.774259
N      3.591199    1.154388   -1.416836
O      1.075715    1.903502   -0.269350
O     -2.260361    0.125652    2.846840
O     -0.550287   -0.125092    0.690808
H     -4.494417    1.230366    1.830498
H     -5.859133    1.908724    2.863817
H      4.336983   -1.160717   -2.764470
H      5.983555   -0.517829   -3.093372
H      5.383619   -0.695286   -1.383176
H      3.449197    0.412139   -4.181883
H      3.440125    2.189531   -3.873632
H      4.883218    1.418974   -4.559894
H     -4.704789    1.357312    4.869023
H     -4.974591   -2.965847    0.908696
H     -3.490071   -3.187348   -0.970092
H     -4.450643   -1.429292    2.729094
H     -1.392446   -1.849498   -1.088337
H     -3.078897   -0.498886    4.579963
H     -2.282124    1.107289    4.690204
H      1.843524    0.663659   -2.401084
H      2.602386   -0.733859   -1.585284
H      0.648811   -1.354848   -0.414318
H     -0.243051   -0.143430   -1.386789
H      5.417599    1.623322   -2.220602
H      2.007370    0.333115    0.650295
H      3.950949    1.360958   -0.479783
H      0.695027    2.126927    0.610618
