90

C      5.845983    2.763911    1.461551
C      6.127605    0.603169    2.271269
C     -3.350816   -1.429881    2.217047
C     -4.911800   -2.188834    0.714122
C      4.931597   -4.799121   -1.569905
C     -7.235549    4.848973   -1.104129
C      1.725511    1.744649   -1.469763
C      1.269415    2.362615    0.746983
C     -2.475808   -3.370914   -1.184054
C      0.360399    1.692507   -1.711205
C     -0.122095    2.293540    0.445119
C     -1.667290   -4.479745   -1.119751
C      6.494399   -0.453673    0.026535
C     -6.212637    0.279392    0.709003
C      6.451650    1.046303    0.009211
C     -5.251347   -0.189364    1.787835
C      3.674414    2.200520    0.081585
C     -3.117496   -1.084132   -1.107040
C     -0.658518   -1.869035   -0.641302
C      5.018450   -2.258144   -0.521024
C     -5.969230    2.470916   -0.378644
C      2.706707   -0.913759    0.423579
C      2.203728    2.086087   -0.225929
C     -1.993254   -2.056308   -0.948784
C      5.090873   -0.955547    0.014757
C     -5.365433    1.289367   -0.011283
C     -0.622971    1.962113   -0.778295
C      3.950037   -0.284593    0.482687
C      4.223601    1.081610    0.971845
C     -3.481389   -0.292561    0.124269
C     -0.376825   -4.262300   -0.819055
C      0.169569   -2.975979   -0.572876
C      3.816114   -2.828714   -0.564720
C      2.635507   -2.204108   -0.109734
C     -5.250831    3.462404   -1.002584
C     -4.040941    1.061552   -0.253034
C     -3.913886    3.226061   -1.241462
C     -3.236194    2.042530   -0.890623
N      5.630553    1.365537    1.113786
N     -4.227489   -0.992780    1.102832
O      0.417964   -5.427560   -0.762899
O     -3.253351    4.300729   -1.892243
O      3.802422   -4.136671   -1.110463
O     -5.855516    4.673030   -1.383997
O     -1.967351    1.885279   -1.138817
O      1.537462   -3.022552   -0.281623
H      6.809771    2.811569    2.008574
H      5.964074    3.421643    0.579625
H      5.079063    3.122890    2.187603
H      5.705314   -0.398519    2.336174
H      5.808557    1.154222    3.198507
H      7.233344    0.649827    2.279746
H     -3.893935   -1.530308    3.153952
H     -2.822325   -2.368027    1.968070
H     -2.577002   -0.642873    2.327132
H     -4.321619   -3.127365    0.955959
H     -5.778503   -2.320783    1.447735
H     -5.403106   -2.203826   -0.250130
H      5.250654   -4.531749   -2.596634
H      4.659295   -5.895899   -1.614547
H      5.789409   -4.766644   -0.860449
H     -7.888228    4.244514   -1.762191
H     -7.460572    4.650790   -0.024903
H     -7.505485    5.917334   -1.309154
H      2.302556    1.455082   -2.424226
H      1.339400    2.644088    1.835261
H     -3.534439   -3.557584   -1.429816
H      0.121436    1.393889   -2.800811
H     -0.700388    2.555736    1.385337
H     -2.086602   -5.465657   -1.308080
H      7.028220   -0.757496   -0.894102
H      7.070514   -0.851487    0.887229
H     -6.613072   -0.500262    0.082313
H     -7.055054    0.754560    1.244736
H      6.152408    1.352961   -0.984868
H      7.461522    1.482755    0.210759
H     -5.719664   -0.846838    2.531533
H     -4.759347    0.690308    2.209592
H      4.400498    2.174084   -0.736130
H      3.942027    3.226159    0.508067
H     -4.049481   -1.582221   -1.534722
H     -2.976039   -0.327182   -1.944830
H     -0.229147   -0.833989   -0.439996
H      5.930912   -2.743881   -0.875221
H     -7.024772    2.647522   -0.184812
H      1.748818   -0.447890    0.811806
H      3.881341    1.355295    2.002844
H     -2.488793   -0.023158    0.602283
H      1.398511   -5.370705   -0.545367
H     -3.716012    5.122601   -2.142625
