49

C     -0.698600   -3.347222    0.750136
C      4.542944    2.363749   -1.354506
C      4.850029   -1.662746    1.127351
C      0.764893    1.089175    0.015060
C      2.007762    1.493621   -0.419890
C     -1.780731   -1.400031   -2.123855
C     -0.667593   -2.004129   -1.256194
C     -3.095970    0.664142   -2.145187
C     -2.905492    0.941842    0.557650
C     -4.789162    3.678186   -1.014272
C     -2.405154   -0.264111   -1.399936
C      0.605826    0.119829    1.019906
C     -2.299010   -0.139225   -0.033370
C      3.160990    0.961369    0.115331
C     -3.701494    1.746118   -1.542744
C     -3.598057    1.873420   -0.185295
C      1.764530   -0.397998    1.540691
C     -1.579563   -1.093361    0.804607
C     -0.515898   -0.492820    1.665438
C      3.032538    0.010231    1.101265
C      1.370211   -1.360155    2.555518
N     -1.197292   -2.226249    0.036131
O      2.212207   -2.024478    3.234554
O      4.376270    1.404278   -0.359353
O      4.198614   -0.521339    1.635787
O     -4.451192    2.813342   -2.071214
O     -4.297968    3.046388    0.147238
O      0.003479   -1.381188    2.604060
H     -1.139488   -4.304078    0.341933
H      0.399585   -3.464066    0.660086
H     -1.054339   -3.300941    1.798236
H      5.594541    2.614127   -1.521006
H      4.006687    2.092813   -2.287779
H      4.037631    3.310149   -1.000584
H      5.857631   -1.348922    0.775484
H      5.004998   -2.357500    1.965785
H      4.308076   -2.108647    0.268955
H     -0.158324    1.477507   -0.374377
H      2.076033    2.243449   -1.196296
H     -2.570469   -2.204563   -2.181588
H     -1.409542   -1.125756   -3.126403
H     -0.468673   -3.008571   -1.708824
H      0.247348   -1.410929   -1.312487
H     -3.186479    0.577436   -3.217420
H     -2.856775    1.093548    1.626223
H     -4.316138    4.688129   -1.177263
H     -5.909537    3.808045   -0.962891
H     -2.355970   -1.482722    1.538535
H     -1.013915    0.320855    2.293241
