25

C     -2.278029    0.048138    1.467963
C     -1.027534    0.317660    0.955310
C     -3.256352   -0.533116    0.695651
C     -1.677607   -0.560842   -1.117291
C      1.238315    1.629217   -0.438325
C     -0.687159    0.021816   -0.353732
C     -2.935024   -0.834680   -0.610811
C      0.642514    0.301050   -0.919238
C      3.147184    0.078755   -0.819139
C      1.872248    0.285218   -0.111755
N      1.876703   -0.148472    1.263986
O     -3.920724   -1.427728   -1.412491
O      3.255682    0.417129   -2.011998
O      4.213913   -0.485935   -0.163806
H     -2.505899    0.292327    2.490499
H     -0.287711    0.773449    1.588552
H     -4.257384   -0.751283    1.098325
H     -1.451920   -0.813140   -2.163200
H      0.720574    2.176576    0.367156
H      1.649698    2.253830   -1.232044
H      0.758940    0.030021   -1.989058
H      2.536984    0.407161    1.858135
H      2.101721   -1.171623    1.284799
H     -4.833560   -1.627929   -1.049230
H      5.104425   -0.677602   -0.601738
