82

C     -3.550191    3.136028    0.614264
C      3.637027   -1.295318    3.488486
C     -7.475648   -2.925194   -3.290343
C      7.848004    2.338352   -2.514764
C     -0.620314    1.770990    2.127968
C     -1.041919    1.004362   -0.029606
C      0.622180   -1.825808    1.745878
C      0.774649   -2.026978   -0.581373
C      0.693913    2.134918    1.723654
C      0.283162    1.376659   -0.419635
C     -0.783169   -1.990408    1.641353
C     -0.648468   -2.190199   -0.647154
C     -5.950196    1.295731   -0.935743
C      5.918025   -1.165552    0.583652
C     -4.720776    2.120672   -1.213070
C      5.470116   -1.418644    1.980904
C     -2.874700    0.705267    1.625730
C      2.902013   -1.638541    0.652264
C     -6.148078   -1.023437   -1.697483
C      6.244486    0.830317   -0.817093
C     -1.512063    1.192484    1.243404
C      1.410890   -1.841825    0.619423
C     -5.487375   -0.132751   -0.917256
C      5.413288    0.098512    0.032590
C     -1.438301   -2.170276    0.458604
C      1.161032    1.941365    0.451620
C     -3.993633    0.780953    0.653337
C      3.414273   -0.367082    1.291525
C     -5.694705   -2.314687   -1.735837
C      5.743375    2.008797   -1.304138
C     -4.347770   -0.434165   -0.124246
C      4.126589    0.546591    0.372322
C     -4.593415   -2.626116   -0.980899
C      4.489353    2.433315   -0.965293
C     -3.889217   -1.697373   -0.159146
C      3.619802    1.721996   -0.110154
N     -3.759187    1.936540   -0.173361
N      4.338480   -0.664149    2.407192
O     -4.212645   -3.977955   -1.088180
O      4.114345    3.662661   -1.542620
O     -6.344547   -3.275933   -2.524935
O      6.565342    2.753545   -2.157222
O     -2.828225   -2.312825    0.453305
O      2.439371    2.299731    0.097966
H     -4.065995    3.964215    0.044395
H     -4.009198    3.099256    1.602121
H     -2.479795    3.415923    0.601748
H      2.860632   -0.591569    3.900212
H      4.390581   -1.512538    4.279632
H      3.189306   -2.277638    3.225929
H     -8.210976   -2.391256   -2.635282
H     -7.980630   -3.857838   -3.631605
H     -7.169525   -2.318790   -4.166891
H      8.379331    3.170124   -3.048695
H      7.801548    1.492530   -3.217260
H      8.438692    2.022073   -1.618020
H     -0.701285    2.049697    3.219104
H     -1.491049    0.552864   -0.962806
H      0.890956   -1.705082    2.849890
H      1.105383   -2.102665   -1.652533
H      1.256057    2.592653    2.588805
H      0.433014    1.139297   -1.513278
H     -1.278835   -1.961558    2.673177
H     -0.933117   -2.345817   -1.723597
H     -6.356633    1.553783    0.038386
H     -6.708087    1.433250   -1.756441
H      5.699885   -2.002518   -0.134445
H      7.058905   -1.132260    0.558833
H     -4.309026    1.933047   -2.228174
H     -5.031686    3.190417   -1.210092
H      6.316659   -1.125527    2.672189
H      5.346277   -2.519598    2.204376
H     -3.345630    1.276442    2.508148
H     -2.858205   -0.311352    2.129294
H      3.407566   -1.576196   -0.350557
H      3.454138   -2.464984    1.213564
H     -7.019446   -0.772702   -2.296785
H      7.241186    0.466647   -1.071189
H     -4.962991    1.101414    1.233965
H      2.545168    0.092930    1.789620
H     -3.423083   -4.352219   -0.592396
H      3.204736    4.000976   -1.316402
