90

C     -4.761370    1.217790   -1.651670
C     -5.706313    2.914694   -0.397573
C      4.567979    0.214615    2.034316
C      3.769820   -1.972558    1.867585
C     -5.264472   -4.963445   -0.906293
C      7.361846    4.275520   -1.961700
C     -1.708032    2.508913   -0.341069
C     -1.139970    1.811993    1.819818
C      2.335684   -3.458496   -0.601545
C     -0.335173    2.561824   -0.601364
C      0.254526    1.868308    1.547111
C      1.502249   -4.518622   -0.385733
C     -6.588751   -0.442696    0.530298
C      6.012743   -0.349408   -0.592450
C     -6.625126    0.847794   -0.184290
C      5.500645   -1.243583    0.470774
C     -3.577200    2.098209    1.262923
C      3.021831   -1.206671   -1.020613
C      0.511180   -1.900171   -0.895789
C     -5.261201   -2.369128   -0.152532
C      5.955176    2.014671   -1.089002
C     -2.866070   -0.848345    0.058179
C     -2.127360    2.124336    0.910053
C      1.859677   -2.141258   -0.858034
C     -5.261860   -1.061886    0.224644
C      5.221384    0.916984   -0.650967
C      0.672210    2.255576    0.302559
C     -4.072630   -0.265866    0.340772
C     -4.493026    1.112140    0.733196
C      3.283758   -0.320291    0.160480
C      0.182823   -4.256946   -0.426714
C     -0.362631   -2.978764   -0.674668
C     -4.058812   -2.912907   -0.423932
C     -2.837217   -2.182354   -0.328903
C      5.329260    3.229352   -1.151625
C      3.910330    0.959149   -0.275847
C      4.017870    3.304088   -0.781021
C      3.236490    2.202567   -0.328425
N     -5.363966    1.532311   -0.357805
N      4.254425   -0.869648    1.086062
O     -0.626153   -5.392668   -0.196655
O      3.391335    4.574798   -0.852933
O     -4.065872   -4.258018   -0.813665
O      5.998344    4.376325   -1.580701
O      1.980313    2.327894    0.020210
O     -1.743172   -2.973551   -0.661154
H     -3.727981    0.828287   -1.560103
H     -4.708081    2.093581   -2.328094
H     -5.421294    0.488145   -2.204741
H     -6.658758    3.098473   -0.986485
H     -6.043048    3.268030    0.628673
H     -4.913885    3.613396   -0.677945
H      3.884048    1.074511    1.916599
H      5.635949    0.508482    1.986570
H      4.420299   -0.128745    3.100431
H      2.664481   -2.039863    1.919224
H      4.090193   -1.872435    2.950270
H      4.245434   -2.933607    1.551065
H     -5.031751   -5.950814   -1.404080
H     -6.016449   -4.471333   -1.561079
H     -5.714128   -5.226627    0.075772
H      7.396427    3.454460   -2.721818
H      7.726287    5.211393   -2.380679
H      7.976041    3.896182   -1.108418
H     -2.298516    2.792722   -1.282368
H     -1.202418    1.440518    2.886277
H      3.417420   -3.671032   -0.566150
H     -0.162605    2.895693   -1.665338
H      0.902981    1.572658    2.429327
H      1.931584   -5.500629   -0.196102
H     -6.776646   -0.300277    1.600057
H     -7.393994   -1.119546    0.153554
H      7.081197   -0.100336   -0.353673
H      6.024442   -0.771720   -1.615844
H     -7.346182    1.560819    0.278147
H     -7.040007    0.624194   -1.219553
H      5.512590   -2.282549    0.072943
H      6.237545   -1.298428    1.335734
H     -3.827362    2.148217    2.381090
H     -4.080600    3.147603    1.094144
H      3.047091   -0.597234   -1.938084
H      3.987890   -1.779184   -1.135163
H      0.074899   -0.871537   -1.108151
H     -6.194621   -2.950510   -0.229337
H      7.012869    1.907946   -1.377311
H     -1.887871   -0.268718    0.113474
H     -5.275201    0.941987    1.567839
H      2.341856   -0.205627    0.713602
H     -1.616260   -5.243207   -0.217144
H      2.440613    4.654091   -0.587018
