28

C      3.842283    0.111161   -0.426474
C      3.587344    1.466676   -0.397497
C      2.795980   -0.777161   -0.315044
C      2.282080    1.890959   -0.256503
C     -3.080161   -0.439730   -0.373690
C     -2.192903   -1.420080    0.352452
C      0.423367   -1.356756   -0.072513
C      1.479602   -0.351245   -0.173056
C      1.223712    0.993768   -0.143582
C     -2.586234    0.846873    0.301746
C     -1.095988    0.605389    0.129129
N     -0.116232    1.433410    0.012657
N     -0.869371   -0.776425    0.122447
O     -2.865315    0.745032    1.638105
Cl     0.692362    0.000000    0.000000
H      4.875413   -0.252792   -0.537976
H      4.402910    2.160466   -0.484531
H      3.013065   -1.832295   -0.339590
H      2.018849    2.932551   -0.226973
H     -2.766534   -0.390456   -1.421996
H     -4.150543   -0.603574   -0.211717
H     -2.208011   -2.424272   -0.073716
H     -2.371090   -1.349948    1.425636
H      0.595580   -2.050220    0.803811
H      0.439025   -2.014751   -0.984134
H     -2.917340    1.746600   -0.202523
H     -3.759491    1.106822    1.855533
H     -0.692362    0.000000    0.000000
