28

C     -4.072821    0.491571    0.493330
C     -3.396540   -0.691795    0.583514
C     -3.441156    1.568355   -0.102108
C     -2.106901   -0.793770    0.084362
C     -2.139934    1.457795   -0.603263
C      3.291127   -0.929386    0.088115
C      4.124758    0.020313    0.886449
C      0.627901   -0.928775   -0.237253
C     -1.469943    0.266267   -0.507852
C     -0.101040    0.147435   -1.028750
C      1.852731    0.963588   -0.216261
N      0.730686    1.303148   -0.713574
N      1.989174   -0.441256   -0.103455
S      3.388738    1.636018    0.419237
Cl     0.683472    0.000000    0.000000
H     -5.097113    0.614607    0.876685
H     -3.858694   -1.547746    1.040375
H     -3.971344    2.497326   -0.173276
H     -1.576357   -1.752885    0.160385
H     -1.694476    2.329538   -1.058192
H      3.785435   -1.224576   -0.874469
H      3.264549   -1.876719    0.679213
H      5.152707    0.009779    0.446960
H      4.103215   -0.142577    1.961151
H      0.531819   -1.863238   -0.786809
H      0.199108   -1.034708    0.786305
H     -0.115629   -0.078309   -2.100819
H     -0.683472    0.000000    0.000000
