36

C     -0.102649   -0.884215    1.564818
C     -0.073132   -1.413863   -1.445677
C      2.606062   -0.849977    0.107935
C      2.456753    1.397135    0.749387
C     -2.631461   -0.792515   -0.045613
C     -2.376650    1.295812   -1.114971
C      3.994817   -0.738536    0.049263
C      3.828226    1.520580    0.695234
C     -3.987286   -0.585449    0.104791
C     -3.722202    1.544503   -0.986974
C      0.326910    0.119236    0.526524
C     -0.324402   -0.102454   -0.803272
C      1.805312    0.215349    0.459308
C     -1.785632    0.128936   -0.653433
C      4.621053    0.451718    0.343328
C     -4.510180    0.596662   -0.376718
O      5.999556    0.534516    0.277266
O     -5.885372    0.840839   -0.240882
H      0.678482   -0.803646    2.384000
H     -1.047639   -0.606328    2.067879
H     -0.028550   -1.913427    1.218606
H     -0.894233   -1.569164   -2.208323
H     -0.080250   -2.276519   -0.781755
H      0.857536   -1.358797   -2.079508
H      2.177617   -1.807827   -0.132402
H      1.846659    2.253303    1.029641
H     -2.233094   -1.725522    0.331247
H     -1.735162    2.046859   -1.601694
H      4.624441   -1.574328   -0.226540
H      4.317933    2.476787    0.932360
H     -4.643964   -1.302293    0.577599
H     -4.190090    2.471009   -1.353684
H     -0.068490    1.118681    0.882910
H      0.043680    0.696982   -1.504515
H      6.616401    0.343795    1.049250
H     -6.480999    0.156631    0.204614
