49

C     -5.532948   -1.076532    0.322195
C      7.065713   -0.125021    0.520597
C     -4.079629   -1.411389    0.091588
C      4.749956    1.022393   -0.520858
C      3.678014    1.662516   -1.060587
C      0.545484   -1.907250    0.240062
C     -0.533104   -1.579935    1.244417
C     -3.475449    0.917880    0.454274
C     -1.663907    1.807143   -0.901628
C      3.475852   -0.819224    0.214280
C     -1.204042    0.733666    1.323164
C     -2.138662    1.667532    0.541044
C     -3.339829   -0.227049   -0.536587
C      4.698878   -0.192331    0.112125
C      1.036669   -0.632003   -0.342395
C      2.354110   -0.196077   -0.325814
C     -1.117193    0.433146   -1.309932
C      2.434841    1.025023   -0.956608
C      0.354362    0.367680   -0.999228
C     -1.859402   -0.635280   -0.532445
N      1.202359    1.343350   -1.356237
N     -1.439404   -0.581885    0.839019
O      5.826835   -0.818551    0.655017
H     -5.849604   -1.349951    1.363010
H     -5.649934    0.035724    0.276636
H     -6.179272   -1.551852   -0.435288
H      6.914494    0.858892    1.032698
H      7.901796   -0.682050    0.951018
H      7.220581    0.112453   -0.558629
H     -3.603560   -1.546045    1.102942
H     -3.919978   -2.342227   -0.458004
H      5.719944    1.494620   -0.588671
H      3.689584    2.604771   -1.556846
H      0.221586   -2.627135   -0.525725
H      1.375136   -2.386464    0.801007
H     -0.092081   -1.313812    2.216068
H     -1.104681   -2.539549    1.408047
H     -3.727358    0.563541    1.474015
H     -4.253574    1.653384    0.095893
H     -0.879238    2.583906   -0.998266
H     -2.559770    2.024779   -1.528047
H      3.350913   -1.768980    0.693239
H     -1.573790    0.782383    2.377218
H     -0.170428    1.074448    1.303565
H     -2.253997    2.637663    1.021287
H     -3.701498    0.014873   -1.533683
H     -1.190116    0.285694   -2.408206
H     -1.717535   -1.631296   -0.950324
H      0.992874    2.234431   -1.866902
