49

C      3.637056    2.462521   -1.502528
C     -7.005896   -0.601734   -0.543353
C      4.250017    1.142063   -1.052709
C     -4.756514    0.017613    0.978619
C     -3.682552    0.331819    1.780614
C     -0.362556   -0.174852   -1.753444
C      0.778087   -1.121873   -1.762610
C      3.884973   -0.656448    0.663761
C      1.778757   -0.266974    1.974820
C     -3.361749   -0.287970   -0.883153
C      1.851831   -1.907503    0.181369
C      2.680596   -1.315061    1.329409
C      3.415673    0.650279    0.092323
C     -4.636536   -0.297699   -0.357371
C     -0.911800    0.095125   -0.411042
C     -2.262220    0.028890   -0.081707
C      1.168022    0.653380    0.937825
C     -2.413476    0.339933    1.250795
C     -0.264918    0.451988    0.753957
C      1.957739    0.435155   -0.342528
N     -1.178538    0.590984    1.724564
N      1.816012   -0.886772   -0.843924
O     -5.742907   -0.614114   -1.153944
H      4.420106    3.196779   -1.764555
H      3.040614    2.914600   -0.676040
H      2.910477    2.294505   -2.339543
H     -7.035538   -1.229082    0.384353
H     -7.380939    0.409311   -0.312684
H     -7.714021   -1.120708   -1.248716
H      4.317882    0.418617   -1.884130
H      5.249784    1.378727   -0.666632
H     -5.751248    0.013705    1.403904
H     -3.800201    0.574402    2.819724
H     -0.073411    0.778300   -2.283907
H     -1.179206   -0.603557   -2.370433
H      0.357536   -2.160712   -1.620957
H      1.203279   -1.137534   -2.794306
H      4.686729   -0.561523    1.407956
H      4.212497   -1.326406   -0.184609
H      0.976026   -0.808866    2.481820
H      2.393393    0.260139    2.714715
H     -3.175029   -0.522962   -1.922006
H      2.340639   -2.798783   -0.251359
H      0.810035   -2.100523    0.506155
H      2.952914   -2.057205    2.073352
H      3.483597    1.410341    0.898607
H      1.427696    1.698618    1.270477
H      1.674807    1.153262   -1.129346
H     -0.987519    0.857800    2.725321
