48

C     -5.332627   -0.421284   -1.311012
C      0.648323   -2.046662    1.437720
C      2.694379   -2.111572   -0.563605
C      2.152005    2.148063    1.680970
C      3.516908    2.251413    1.827350
C     -4.922100    1.089548    0.715155
C      1.466064   -0.407175   -1.870662
C      0.019978   -0.358957   -2.182644
C     -3.794142    1.622590    1.292566
C      0.143381    1.045599    0.801735
C      3.776511    0.291281    0.464288
C     -2.234857   -0.180784   -1.416048
C     -4.485619    0.360282   -0.351537
C      0.483591   -1.364838    0.115574
C      1.610537    1.102006    0.916827
C      4.314560    1.312060    1.210533
C      2.394705    0.180685    0.311867
C     -0.426654   -0.164066    0.173556
C     -3.093620    0.473651   -0.389748
C      1.786978   -0.904996   -0.486309
N     -0.859705    0.121353   -1.157348
O      5.706328    1.407354    1.352783
O     -2.763067    1.230333    0.607532
H     -5.217820   -1.493967   -0.980438
H     -4.918696   -0.325310   -2.331940
H     -6.369652   -0.107719   -1.201956
H      0.981317   -1.357493    2.236114
H     -0.344721   -2.441143    1.735020
H      1.313502   -2.908778    1.300800
H      3.215110   -2.329157    0.370059
H      2.047876   -2.959835   -0.916917
H      3.405937   -1.936966   -1.414489
H      1.537218    2.889634    2.168719
H      3.969676    3.047586    2.411191
H     -5.939919    1.241166    1.066581
H      2.012195   -1.052753   -2.589511
H      1.932010    0.594608   -1.979525
H     -0.136430    0.286400   -3.073717
H     -0.325014   -1.373090   -2.472417
H     -3.807744    2.258709    2.171618
H     -0.146207    1.938141    0.185379
H     -0.342663    1.263122    1.804065
H      4.425961   -0.426533   -0.004883
H     -2.407244   -1.277959   -1.353571
H     -2.534193    0.231823   -2.388551
H      0.031876   -2.083360   -0.597796
H     -1.307910   -0.500443    0.781297
H      6.123677    2.147432    1.895326
