36

C     -1.110322    0.521256   -2.179468
C      0.468859   -2.319462   -0.123615
C     -2.430400   -1.180837    0.793229
C     -1.401198    0.932798    0.752753
C      1.742793    0.299224    0.430851
C      2.130850    0.399876   -1.873119
C     -3.005545   -0.893425    2.012998
C     -1.979245    1.235998    1.990652
C      2.706588    1.254504    0.653516
C      3.099328    1.357500   -1.667338
C     -1.023687   -0.615549   -1.195764
C      0.385555   -1.180939   -1.107694
C     -1.605078   -0.271780    0.120440
C      1.417690   -0.162630   -0.823386
C     -2.783231    0.309945    2.613334
C      3.404429    1.801978   -0.400077
O     -3.384746    0.565060    3.852254
O      4.393213    2.779699   -0.191326
H     -0.347559    1.303232   -1.992288
H     -2.110465    1.005797   -2.010283
H     -1.121578    0.163893   -3.229084
H     -0.098883   -2.115530    0.807631
H      1.556566   -2.413097    0.150863
H      0.200607   -3.270940   -0.603909
H     -2.606344   -2.140290    0.312337
H     -0.772635    1.667212    0.261252
H      1.218588   -0.112180    1.288371
H      1.934794    0.088820   -2.901623
H     -3.650340   -1.617482    2.527337
H     -1.799357    2.183127    2.454718
H      2.947336    1.606644    1.665480
H      3.667942    1.807840   -2.488813
H     -1.668010   -1.449540   -1.626222
H      0.585378   -1.638689   -2.130577
H     -4.306608    0.992209    3.902518
H      5.344717    2.441663   -0.045947
