38

C      2.765415    2.073690   -1.665937
C      3.572632   -1.507105    1.723427
C     -3.490188    2.641836    0.957937
C     -2.693567    2.246923    2.011098
C     -3.463197    1.996118   -0.257762
C     -1.862812    1.174036    1.797166
C     -0.816094   -2.198706   -1.639733
C     -1.106160   -3.242565   -0.577658
C      3.130625    0.292021    0.013889
C      0.927234    0.681468   -0.730504
C      1.318477   -1.027707    0.888984
C      2.265893    1.002916   -0.784329
C      2.665907   -0.715936    0.845431
C      0.456205   -0.315849    0.090388
C     -2.621445    0.911488   -0.465254
C     -1.813314    0.497372    0.568658
C     -2.422838    0.009985   -1.605155
C     -0.994943   -0.601857    0.091935
N     -1.473634   -0.970540   -1.229514
O     -3.025918    0.136926   -2.711743
S     -1.328039   -2.202629    0.929469
H      2.861262    1.783032   -2.722625
H      3.766018    2.443914   -1.349710
H      2.025725    2.924865   -1.637659
H      4.588391   -1.101254    1.600711
H      3.565716   -2.586043    1.438754
H      3.216103   -1.358867    2.766503
H     -4.147382    3.484960    1.113085
H     -2.720708    2.764664    2.976014
H     -4.086458    2.296999   -1.098228
H     -1.222486    0.837384    2.604655
H      0.258658   -2.067528   -1.841681
H     -1.316093   -2.552908   -2.563162
H     -0.168315   -3.802505   -0.410227
H     -1.983781   -3.853095   -0.778716
H      4.187671    0.490358    0.021568
H      0.228781    1.241843   -1.362720
H      0.956660   -1.827704    1.550121
