38

C     -5.735111    0.827995   -1.902219
C      6.276085   -0.279263   -0.895439
C     -4.533565    1.310779   -1.104337
C      3.829549    0.584072    0.046073
C      2.362110    0.579887   -0.367443
C     -0.966439    0.292737   -0.626469
C      5.399979   -1.153345   -0.100514
C     -3.520511    0.205686   -0.920707
C     -2.336473    0.694973   -0.130188
C     -0.332852   -0.151511    0.642230
C     -1.311771   -0.588345    1.427520
C     -3.881494   -0.600159    0.311349
C     -1.096152   -1.118255    2.783273
N      4.265491   -0.762150    0.339614
N     -2.557018   -0.464344    0.775800
O      5.807570   -2.450843    0.188961
O     -4.905972   -1.164104    0.763037
O     -2.064510   -1.517019    3.478644
O      0.171731   -1.196568    3.338768
S      1.414301   -0.088830    0.993276
H     -6.443841    0.275235   -1.266387
H     -5.415691    0.163547   -2.752358
H     -6.266534    1.673250   -2.381928
H      5.853637   -0.043237   -1.899491
H      6.426114    0.681043   -0.321560
H      7.285986   -0.723217   -0.975913
H     -4.058187    2.183535   -1.612098
H     -4.928075    1.686971   -0.147014
H      4.460899    1.062558   -0.744605
H      3.986492    1.190881    0.959766
H      2.207037    0.096355   -1.331902
H      2.083388    1.667409   -0.485720
H     -0.428140    1.130881   -1.104211
H     -1.125679   -0.562683   -1.329168
H     -3.326969   -0.385881   -1.811103
H     -2.421877    1.661328    0.357407
H      5.467411   -2.955728    1.005472
H      0.359082   -1.763639    4.172397
