33

C     -2.673536   -0.575704    0.370597
C     -2.941583    1.583531   -0.576362
C     -4.034157   -0.545733    0.628190
C     -4.287597    1.621062   -0.325122
C      2.556758   -0.302478    0.541045
C      3.997280   -0.102066    0.162807
C     -2.115829    0.520912   -0.248839
C     -4.847522    0.506968    0.302841
C      1.673051   -0.240678   -0.634695
C      4.874252   -0.136857    1.389883
C     -0.708187    0.627895   -0.578130
C      1.974462   -1.276855   -1.628184
N     -6.232040    0.553262    0.557734
N      0.261966   -0.370048   -0.294385
O      4.422848   -0.307518    2.534216
O      6.235148    0.029538    1.217972
O     -0.301630    1.667265   -1.153570
O      1.070529   -2.131115   -1.985984
O      3.180708   -1.472847   -2.280410
H     -2.050238   -1.396384    0.626189
H     -2.531608    2.476564   -1.072124
H     -4.486443   -1.399614    1.114386
H     -4.876167    2.474294   -0.603171
H      2.481630   -1.281356    1.102351
H      2.338081    0.459988    1.321892
H      4.385443   -0.836364   -0.569851
H      4.180490    0.897437   -0.285599
H      1.866712    0.746339   -1.143237
H     -6.892378    0.175302   -0.135078
H     -6.579421    0.963891    1.435046
H     -0.087259   -1.223899    0.181227
H      6.842631    0.413879    1.941721
H      3.303606   -2.118613   -3.052367
