49

C      6.055759   -1.464900    0.301510
C     -4.273528   -0.876192    1.471773
C      5.232919   -0.657539   -0.328765
C     -3.845423   -2.163550    0.911756
C      3.839412   -0.449168    0.237003
C     -3.060241   -2.226867   -0.347530
C      2.919549   -0.897950   -0.821847
C      1.209324    2.498902    0.865364
C     -1.714189   -1.593975   -0.392042
C      1.448810   -0.896505   -0.579548
C      1.192681    1.002236    1.098101
C      0.170594    2.872578   -0.210433
C     -2.472705    0.600859   -1.335759
C     -2.019054    2.043104   -1.154611
C      0.786988    0.361283   -0.211365
C     -1.681220   -0.150946   -0.235277
C     -0.956260    1.929186   -0.124624
N     -0.532776    0.574907   -0.345993
H      7.060664   -1.643862   -0.066045
H      5.792425   -1.995976    1.212293
H     -5.266517   -1.098287    2.031068
H     -4.492492   -0.050130    0.804609
H     -3.648682   -0.494091    2.338129
H      5.521026   -0.145408   -1.228137
H     -4.703387   -2.913143    0.876701
H     -3.187640   -2.649568    1.720763
H      3.835006    0.674159    0.367358
H      3.787800   -1.012938    1.160194
H     -3.663710   -1.803363   -1.221562
H     -2.997947   -3.323425   -0.617764
H      3.200652   -1.943512   -1.110435
H      3.106270   -0.252089   -1.733359
H      2.222380    2.839671    0.569605
H      0.964236    2.987236    1.826983
H     -1.170004   -2.035344    0.507164
H     -1.230249   -1.980845   -1.327373
H      1.021657   -1.194989   -1.593061
H      1.151117   -1.673949    0.175161
H      2.012878    0.576575    1.628966
H      0.298948    0.823649    1.807488
H     -0.195586    3.891102    0.115940
H      0.620332    3.010289   -1.190388
H     -3.538990    0.487053   -1.241487
H     -2.076880    0.276142   -2.339705
H     -1.585960    2.462731   -2.086086
H     -2.843463    2.689493   -0.797424
H      1.288015    1.096464   -0.977647
H     -2.182285    0.148950    0.698713
H     -1.400254    1.972884    0.891624
