95

C     -5.836511    3.178915   -1.560542
C     -6.209431    2.893276    0.819159
C     -9.446479   -0.200326   -0.425116
C      9.295000    2.142799    2.699194
C      8.695534   -2.649558   -2.694426
C     11.190494    1.083509   -1.468701
C     -5.402654   -0.858326   -3.797661
C     -8.350477   -2.657769    2.699353
C     -4.045751   -0.896785   -3.997398
C     -7.079159   -2.690867    3.243077
C     -1.168278    0.706467    1.330086
C     -0.884730    1.402544    0.034272
C     -5.940629   -0.270504   -2.644707
C     -8.667175   -1.830935    1.666568
C     -3.227043   -0.344464   -3.039710
C     -6.160660   -1.845521    2.682630
C      5.486618   -0.920236    0.851745
C     -0.679816   -0.721723    1.338387
C      4.621627    0.017630    0.072653
C      1.599190   -0.446456    2.137758
C      1.195676   -1.285562   -0.104506
C      2.805734    0.301711    1.645887
C      2.716756   -1.441050    0.002814
C     -1.533762    0.756463   -1.144859
C      7.645541    0.249201    1.228947
C      7.487729   -1.331227   -0.567978
C     -5.408234    2.374909   -0.385833
C      6.904204   -0.664187    0.494468
C     -5.127333    0.282652   -1.684729
C     -7.711353   -0.988227    1.123848
C     -3.765948    0.231985   -1.907573
C      8.960887    0.483895    0.891747
C      8.798300   -1.077471   -0.880708
C     -6.455309   -0.990387    1.627374
C      9.569167   -0.165988   -0.162348
C     -7.214950    0.781907   -0.606856
C     -5.753377    0.900598   -0.491116
N     -8.053878   -0.122078    0.043482
N      0.701817   -0.880474    1.145800
N      3.213478   -0.114725    0.319847
O     -7.747862    1.631397   -1.415094
O      9.736152    1.392456    1.605521
O      9.432016   -1.716818   -1.934376
O     10.889580    0.056002   -0.516771
O     -2.953551    0.790800   -0.932911
S     -5.183433    0.071212    0.979158
H     -5.967848    2.586694   -2.509311
H     -6.794234    3.716107   -1.407262
H     -5.102448    4.026444   -1.768946
H     -5.808442    2.333726    1.696514
H     -6.028450    3.958206    1.009152
H     -7.277237    2.615465    0.718609
H    -10.115683    0.103695    0.415941
H     -9.650517   -1.233866   -0.769059
H     -9.637857    0.476525   -1.277021
H      8.759444    3.049510    2.313518
H     10.188193    2.476102    3.298603
H      8.573393    1.610120    3.345999
H      9.359555   -3.266398   -3.342560
H      8.134749   -3.359916   -2.034953
H      7.954594   -2.077863   -3.281598
H     11.199622    0.695431   -2.502601
H     12.136951    1.589643   -1.241456
H     10.391136    1.876901   -1.415056
H     -6.029845   -1.294466   -4.559430
H     -9.076655   -3.342590    3.161759
H     -3.606179   -1.354791   -4.898062
H     -6.817336   -3.354797    4.076201
H     -0.804096    1.299621    2.162877
H     -2.285975    0.658967    1.438028
H      0.198444    1.516750   -0.151593
H     -1.290286    2.437076    0.115789
H     -7.014968   -0.277273   -2.555059
H     -9.665577   -1.824893    1.260760
H     -2.147655   -0.370584   -3.191370
H     -5.137395   -1.820368    3.064306
H      5.373361   -0.670655    1.923131
H      5.269139   -1.975874    0.617425
H     -1.233380   -1.327261    0.598356
H     -0.949482   -1.175324    2.337863
H      4.931425    1.055653    0.349302
H      4.775883   -0.048105   -1.021707
H      1.138072    0.192713    2.927803
H      1.953000   -1.360021    2.701347
H      1.062085   -0.558501   -0.945099
H      0.772515   -2.286506   -0.357586
H      2.536079    1.379746    1.563532
H      3.600934    0.219588    2.393116
H      3.001418   -2.203987    0.736803
H      3.087383   -1.702589   -1.009187
H     -1.279419   -0.286431   -1.321228
H     -1.370074    1.410199   -2.043613
H      7.217392    0.784378    2.064091
H      6.883160   -2.041020   -1.127490
H     -4.344609    2.526157   -0.102725
