44

C     -2.919501    2.427574    0.444428
C      4.753947    2.679867    0.103025
C      3.945955   -2.642504   -0.909323
C      0.811801    1.260368    0.098003
C      2.101617    1.730359    0.100003
C     -2.483795   -2.414543   -0.737518
C     -1.123524   -1.764687   -0.953639
C     -1.400771   -0.752970    1.314620
C     -2.373552    0.364482    1.604695
C      1.530611   -0.912924   -0.388252
C     -3.073865   -0.030794   -1.321809
C      0.480325   -0.077508   -0.145599
C     -3.482124   -1.325991   -0.725186
C      3.149162    0.874187   -0.145612
C      2.846644   -0.469262   -0.393086
C     -1.861038    0.546994   -0.641256
C     -0.913263   -0.544547   -0.128488
N     -2.152849    1.259726    0.540784
O     -4.571356   -1.521195   -0.243320
O      4.436816    1.342059   -0.143094
O      3.935274   -1.278089   -0.631536
H     -2.339156    3.207587   -0.131314
H     -3.902825    2.338366   -0.021118
H     -3.060397    2.869557    1.446513
H      4.703031    2.872552    1.197811
H      5.779587    2.865834   -0.291217
H      4.078168    3.377223   -0.421140
H      3.066148   -3.140860   -0.469794
H      4.025505   -2.798048   -2.009401
H      4.870336   -3.066390   -0.402338
H      0.044714    1.976596    0.293092
H      2.286104    2.787450    0.298167
H     -2.731766   -3.024359   -1.656961
H     -2.524868   -3.088293    0.119420
H     -0.395840   -2.581086   -0.813928
H     -1.065342   -1.492183   -2.029469
H     -1.847016   -1.739754    1.469486
H     -0.485411   -0.634082    1.964729
H     -2.039540    0.884518    2.550158
H     -3.402326    0.015247    1.745764
H      1.424881   -1.976432   -0.591654
H     -3.951347    0.633275   -1.269157
H     -2.895529   -0.169000   -2.428348
H     -1.273626    1.131678   -1.376160
