56

C      4.837255   -3.402634   -1.028976
C     -3.386977   -2.328637    1.575581
C      2.628498    1.613576    1.066878
C      1.196646    2.005250    1.314198
C      2.752783    0.961978   -0.278245
C      0.731035    2.979168    0.270658
C      4.180866    0.558611   -0.528903
C     -0.688200    3.381446    0.594236
C      4.647834   -0.411193    0.508805
C     -1.648002    2.228983    0.622705
C      3.771737   -1.652644    0.498554
C     -1.685306    1.525386   -0.706362
C     -4.065375    0.746073   -0.428329
C     -4.929910   -0.465756   -0.700802
C      3.855517   -2.275685   -0.849004
C     -2.996719   -1.830636    0.188350
C     -2.652288    0.368084   -0.715494
C     -4.156290   -1.756408   -0.738781
N     -2.235894   -0.605165    0.267655
O      3.187921   -1.936143   -1.806401
O     -5.013752   -2.822314   -0.452869
H      4.389340   -4.194312   -1.643920
H      5.735388   -2.941369   -1.489214
H      5.110518   -3.825991   -0.055697
H     -3.570891   -3.438049    1.519684
H     -2.552742   -2.201502    2.280891
H     -4.299077   -1.844881    1.934396
H      3.304236    2.491742    1.107473
H      2.958191    0.940136    1.890515
H      1.076456    2.392780    2.327159
H      0.526110    1.099879    1.256102
H      2.439888    1.734846   -1.030798
H      2.046637    0.120680   -0.382507
H      1.399627    3.873309    0.209658
H      0.701091    2.545095   -0.750661
H      4.272221    0.097663   -1.537904
H      4.854720    1.447252   -0.503085
H     -0.982647    4.145757   -0.177764
H     -0.677676    3.895656    1.591830
H      4.666074    0.056086    1.503322
H      5.713460   -0.724100    0.294232
H     -2.667646    2.607781    0.907824
H     -1.383490    1.548126    1.455419
H      4.103774   -2.379888    1.276252
H      2.711455   -1.423466    0.711944
H     -0.677722    1.120530   -0.932078
H     -1.930198    2.244106   -1.510841
H     -4.443366    1.569224   -1.076138
H     -4.212025    1.073073    0.626300
H     -5.381239   -0.345609   -1.706720
H     -5.793404   -0.518972    0.007099
H     -2.291136   -2.607585   -0.215557
H     -2.612525   -0.123637   -1.707193
H     -3.779589   -1.955576   -1.782494
H     -1.223468   -0.727181    0.344302
H     -5.861724   -2.632945   -0.929985
