36

C     -2.900211   -3.385199    0.549224
C     -1.619441    3.677373   -0.035316
C     -1.154028   -1.258009    0.113248
C     -0.725679    1.059056   -0.080156
C      2.558823    1.105255   -1.623155
C      2.668874   -1.013468    1.230287
C     -0.259791   -0.234160   -0.106898
C      2.074830    0.645470   -0.267221
C      3.330512   -0.066925    0.269434
C     -2.495603   -1.026961    0.358526
C     -2.078188    1.330543    0.165317
C     -2.940993    0.274672    0.381041
C      1.149586   -0.530764   -0.365619
C      3.830689   -0.685013   -0.953858
O     -4.266537    0.580324    0.619717
O      4.584507   -1.678894   -1.018195
O     -3.397119   -2.062195    0.580599
O     -2.544688    2.633494    0.191797
O      1.612654   -1.505708    0.487950
O      3.344775   -0.004231   -2.057068
H     -3.753177   -4.050785    0.847603
H     -2.029504   -3.515553    1.202220
H     -2.698855   -3.639624   -0.517770
H     -2.111051    4.657747    0.094914
H     -1.197822    3.528761   -1.049039
H     -0.808646    3.551484    0.731780
H     -0.826833   -2.287327    0.100227
H     -0.088517    1.910225   -0.245044
H      3.232979    1.966312   -1.469799
H      1.713573    1.307922   -2.297186
H      3.329735   -1.840995    1.551669
H      2.303298   -0.410159    2.086332
H      1.763433    1.440999    0.405995
H      4.017939    0.648183    0.743732
H      1.301705   -0.947933   -1.406427
H     -4.921228   -0.173915    0.781137
