36

C      2.764453    0.326645    2.153987
C      1.827855    1.502844   -1.126679
C     -0.623343   -2.334392   -0.654163
C     -2.986597    0.599327    1.300331
C      3.097833   -0.358995    0.841438
C      1.863549   -0.694181    0.051660
C     -2.458459   -0.659614   -0.813790
C      1.046739    0.525236   -0.299261
C     -1.015017   -0.896847   -0.433824
C     -2.906737    0.659652   -0.198397
C     -0.152485    0.079628   -1.146045
C     -1.912888    1.699098   -0.667789
O     -1.991868    2.901765   -0.303795
O     -0.937837    1.191156   -1.517150
H      1.757524   -0.041609    2.496174
H      2.772075    1.416168    2.091394
H      3.463905    0.023865    2.971327
H      1.886912    1.081623   -2.160752
H      2.813338    1.759160   -0.715329
H      1.221476    2.433124   -1.225089
H     -0.615158   -2.852182    0.304778
H      0.261773   -2.474605   -1.283991
H     -1.466048   -2.809322   -1.239461
H     -2.685314   -0.390039    1.704398
H     -2.388494    1.428495    1.737627
H     -4.048786    0.799990    1.626537
H      3.850089    0.207902    0.256064
H      3.584094   -1.323011    1.107012
H      2.225371   -1.165903   -0.897212
H      1.293740   -1.434392    0.615055
H     -2.497694   -0.544782   -1.911822
H     -3.129056   -1.474990   -0.498466
H      0.659880    0.958451    0.648312
H     -0.948078   -0.680759    0.666967
H     -3.881865    0.976018   -0.617413
H      0.255117   -0.434523   -2.054623
