42

C     -0.720839    2.669787    0.074400
C      0.684483   -2.708393    0.005645
C     -2.013652    3.063998   -0.208738
C      2.018485   -3.069708   -0.058898
C      3.437547    1.535376   -0.160794
C     -3.392279   -1.589840   -0.358492
C     -0.341100    1.334014    0.235268
C      0.323567   -1.388048    0.180145
C     -3.013142    2.141420   -0.349580
C      3.025668   -2.153081    0.045486
C      2.009991    1.974782   -0.001618
C     -1.944666   -1.653636   -0.883784
C     -3.747303   -0.150142   -0.349771
C      3.682587    0.166399    0.308500
C      1.066545    0.992466    0.564043
C     -1.108074   -1.068702    0.205461
C     -1.348630    0.423276    0.090916
C      1.323523   -0.427875    0.293862
C     -2.666057    0.812284   -0.196329
C      2.663495   -0.840387    0.220518
O     -4.317838    2.518860   -0.633484
O      4.352590   -2.515435   -0.019626
O      2.093642    3.062774    0.916459
O     -1.704822   -2.911079   -1.302993
O     -4.947708    0.230835   -0.471333
O      4.803545   -0.113253    0.790294
H      0.007763    3.435074    0.168567
H     -0.038269   -3.537491   -0.069299
H     -2.223327    4.134688   -0.318684
H      2.278172   -4.121789   -0.197857
H      3.731939    1.542502   -1.253343
H      4.175021    2.206954    0.318738
H     -4.066785   -2.209183   -0.955222
H     -3.342690   -1.908802    0.714194
H      1.646638    2.337973   -0.982439
H     -1.916520   -0.961581   -1.760437
H      1.118597    1.109619    1.700932
H     -1.509569   -1.375441    1.195501
H     -4.547116    3.486700   -0.740404
H      4.579357   -3.487589   -0.148681
H      2.176961    2.635585    1.798579
H     -2.289729   -3.623915   -0.919559
