79

C      3.322596    0.211504   -3.473055
C      4.239346   -0.918610    2.835907
C      4.154877   -2.596524    1.089891
C     -0.603900   -0.744625   -1.858229
C     -1.057815   -0.444263    1.900669
C     -5.365876    0.215032   -2.538976
C      1.780549    1.188078    2.307909
C     -1.553195    1.559439   -0.310445
C     -0.141250    1.667025    0.108392
C     -3.256583   -1.564670   -1.451123
C      1.612352   -1.843014    1.708293
C     -5.190997    1.659615    0.660467
C     -2.135215   -2.043059   -0.513095
C      0.397139   -2.053821    0.819462
C     -5.208987    0.343887   -0.106636
C      4.014844    1.936093    0.763966
C      2.863176    1.088127   -2.331228
C     -2.231510    0.259414   -0.310529
C     -3.127191   -0.039768   -1.488562
C      2.492946   -0.869316    1.002268
C      0.630139    0.392090    0.224979
C      2.745120    1.451715    0.125115
C     -4.901660    2.653999   -0.407150
C      5.104542    0.922696    0.520548
C      3.882943   -1.109257    1.399008
C     -1.228205   -0.869348   -0.511209
C     -0.273405   -0.740226    0.640237
C     -4.464317    0.608959   -1.374492
C      1.927615    0.513407    0.989113
O      2.240238    2.155695   -2.563012
O     -5.156499    3.878422   -0.386937
O      6.235804    1.350592    0.228318
O      3.103760    0.758297   -1.029133
O      4.860381   -0.425626    0.617164
O     -4.280965    2.014280   -1.482626
H      3.006771    0.666257   -4.423848
H      4.427060    0.128436   -3.375065
H      2.887542   -0.798687   -3.302567
H      3.489287   -1.269764    3.554852
H      4.634048    0.110586    3.062653
H      5.144238   -1.571738    3.031319
H      4.085649   -3.198802    2.020344
H      3.485540   -2.954686    0.282172
H      5.188973   -2.758339    0.718340
H     -1.313732   -1.207966   -2.609182
H     -0.484815    0.295783   -2.223675
H      0.311479   -1.370042   -1.980838
H     -1.964690   -1.121354    1.922454
H     -1.458444    0.579199    1.959661
H     -0.515232   -0.751778    2.833710
H     -6.347801    0.691681   -2.345375
H     -5.528149   -0.877011   -2.577508
H     -4.969338    0.631252   -3.481404
H      0.712950    1.251783    2.677095
H      2.037268    2.293954    2.272979
H      2.347566    0.790449    3.143382
H     -2.147358    2.240353    0.376670
H     -1.775736    2.026132   -1.321774
H      0.337212    2.302182   -0.666827
H     -0.010962    2.262371    1.061413
H     -4.248645   -1.869462   -1.059536
H     -3.172407   -2.013882   -2.459870
H      1.332376   -1.579169    2.721545
H      2.098004   -2.850768    1.770275
H     -6.192507    1.866165    1.106537
H     -4.385808    1.721257    1.407003
H     -2.509970   -2.397813    0.439460
H     -1.622135   -2.888235   -1.021163
H     -0.287571   -2.728542    1.352717
H      0.703682   -2.524049   -0.115753
H     -6.281632    0.039109   -0.312206
H     -4.802959   -0.427330    0.544199
H      3.980062    2.205050    1.805089
H      4.332424    2.826412    0.182976
H     -2.868141    0.067058    0.588749
H     -2.666618    0.285714   -2.450194
H      2.453516   -1.192347   -0.091774
H      0.966270    0.134052   -0.815640
H      2.161937    2.370291   -0.006663
