78

C      0.687873    3.876240   -1.528873
C      7.345830   -2.278219    1.475400
C     -2.431069   -0.131749   -4.761548
C     -7.144297    1.862444    2.203988
C      0.797474   -3.580713    0.614032
C     -0.182319   -1.998672    2.102887
C      4.942927    1.138330    0.398174
C      2.089464   -3.280071    1.184125
C      1.118313   -1.737092    2.633864
C      5.795966    0.125279    0.669222
C     -4.746990   -2.270356    3.045763
C      1.857298    2.046562   -3.584856
C     -3.982943   -3.402879    3.107543
C      2.499640    3.249308   -2.987716
C     -1.661199   -3.036190    0.365970
C      2.892716    2.419514    0.212790
C      3.103996    0.258057    1.627440
C     -0.238740    0.871979   -3.396519
C     -5.424849   -0.240506    2.082710
C     -0.062891    0.734251   -0.556711
C     -0.325261   -2.917754    1.086786
C      3.620826    1.284036    0.816911
C      0.817324    1.398107   -2.722645
C     -4.499115   -1.289546    2.084116
C      2.193141   -2.386392    2.134281
C      0.953217    1.354653   -1.277428
C     -2.745741   -2.561565    1.261680
C      2.193714    2.036073   -1.017385
C      5.244914   -0.923558    1.491490
C     -1.200034    0.283922   -2.638195
C      3.944008   -0.770362    1.895354
C     -1.154279    0.192303   -1.221272
C     -5.314515    0.698268    1.140397
C     -3.478225   -1.403156    1.157355
C     -4.304144    0.615518    0.227254
C     -3.323342   -0.407921    0.160030
N     -3.008909   -3.519229    2.220994
N      2.019129    3.382254   -1.665570
O     -4.282695    1.669845   -0.732698
O      6.062914   -1.954273    1.781049
O     -2.273529   -0.230682   -3.398939
O     -6.227361    1.801124    1.045326
O      3.511986   -1.972461    2.690869
O     -2.302819   -0.459422   -0.753519
H      0.009924    3.108156   -1.069939
H      0.604304    4.787550   -0.883017
H      0.205580    4.125751   -2.499597
H      7.591841   -3.365464    1.617628
H      7.540884   -2.094426    0.373881
H      8.087565   -1.678436    2.035600
H     -2.157632    0.920304   -5.100666
H     -3.486289   -0.337138   -5.091615
H     -1.766722   -0.815151   -5.305132
H     -6.531800    1.976032    3.111365
H     -7.871195    2.659287    2.069091
H     -7.669369    0.902932    2.151176
H      0.967664   -4.367245   -0.162552
H     -0.864345   -1.331810    2.674959
H      5.395054    1.943590   -0.252185
H      2.866114   -3.940873    0.683832
H      1.012898   -1.009271    3.491244
H      6.802908    0.033463    0.337165
H     -5.540606   -2.168182    3.763968
H      1.290776    2.423719   -4.501499
H      2.542445    1.285711   -3.988820
H     -4.190244   -4.163163    3.872890
H      2.251201    4.152219   -3.576687
H      3.616600    3.185877   -2.971058
H     -1.692654   -2.522341   -0.616745
H     -1.955565   -4.071692    0.054914
H      2.296433    3.118203    0.805755
H      3.726738    3.144221   -0.147493
H      2.074116    0.408175    2.082388
H     -0.320867    0.900966   -4.492948
H     -6.201595   -0.216323    2.853536
H     -0.001251    0.654626    0.577231
H      3.055916    1.592377   -1.659738
H     -5.066231    2.213057   -0.910860
