79

C     -3.343449    0.400613    4.821631
C     -4.146255   -0.476846   -3.029143
C     -4.764843   -1.746000   -1.074049
C      1.007377    1.666585   -1.192018
C      0.568759   -2.028488   -0.363973
C      4.512898    0.929102    2.150320
C     -2.380821   -1.640568    1.010101
C      1.377961    0.575159    1.465493
C     -0.050756    0.095754    1.532008
C      3.606303    0.402074   -1.502545
C     -1.879979   -1.386971   -1.969602
C      6.669943    0.095369   -0.435847
C      2.300559   -0.197662   -1.999476
C     -0.504610   -0.823261   -2.139683
C      5.783342    1.185944    0.077234
C     -3.243962    1.950209    0.311595
C     -3.655977    0.302475    3.355720
C      2.144514    0.076319    0.302692
C      3.339509    0.898632   -0.073094
C     -2.655517   -0.358345   -1.151573
C     -0.729993    0.063693    0.216215
C     -3.040890    0.646693    1.036237
C      6.053441   -1.146297    0.101049
C     -4.364463    1.860055   -0.673360
C     -4.076261   -0.463310   -1.482984
C      1.335015    0.206597   -0.973932
C      0.114929   -0.651578   -0.775448
C      4.584168    0.523101    0.719507
C     -2.177263   -0.334395    0.248918
O     -4.736825   -0.174143    2.938837
O      6.599732   -2.266653    0.065735
O     -4.876467    2.926602   -1.097993
O     -2.793349    0.721605    2.374324
O     -4.879095    0.666750   -1.151472
O      4.818916   -0.870312    0.628276
H     -4.303778    0.514888    5.403962
H     -2.643086    1.204089    5.048884
H     -2.904820   -0.554142    5.189564
H     -3.341240    0.098566   -3.477744
H     -5.103392    0.009528   -3.383673
H     -4.254655   -1.520088   -3.413073
H     -5.523166   -2.068796   -1.854813
H     -4.077738   -2.588471   -0.997116
H     -5.416341   -1.587549   -0.170191
H      0.928234    2.258030   -0.281546
H      1.839438    2.155406   -1.785098
H      0.113322    1.794166   -1.855401
H      1.617998   -2.267167   -0.709765
H      0.540980   -2.246225    0.693662
H     -0.019271   -2.841849   -0.885813
H      4.265147    0.066584    2.826057
H      3.831973    1.790426    2.305672
H      5.518155    1.267140    2.476622
H     -1.843107   -2.484913    0.604891
H     -1.997490   -1.433915    2.055092
H     -3.462287   -1.820960    1.177005
H      1.909069    0.192588    2.391789
H      1.452335    1.695963    1.599648
H     -0.044038   -0.871287    2.075658
H     -0.506666    0.816935    2.275782
H      4.354677   -0.391471   -1.525060
H      3.940378    1.265832   -2.084195
H     -2.286465   -1.561858   -2.961687
H     -1.918727   -2.347095   -1.425271
H      6.744205    0.074311   -1.551673
H      7.720021    0.172370   -0.069158
H      2.062492    0.372591   -2.947252
H      2.376303   -1.232239   -2.282970
H      0.113523   -1.552937   -2.697494
H     -0.572331    0.090184   -2.731728
H      5.505473    1.869547   -0.748050
H      6.375339    1.773617    0.817981
H     -3.675937    2.651923    1.087938
H     -2.366375    2.366399   -0.173219
H      2.497621   -0.928396    0.517253
H      3.192699    1.976801   -0.029569
H     -2.325004    0.640271   -1.584049
H     -0.763177    1.139730   -0.139132
H     -4.066884    0.160329    0.947577
