48

C      5.679907    0.144202   -1.777470
C     -3.891870   -1.820359    1.044812
C      5.215314   -0.287208   -0.385963
C      4.403699    0.864033    0.178180
C      3.878709    0.570146    1.563556
C      2.987201   -0.637285    1.565421
C      1.783892   -0.455880    0.656652
C      0.934514    0.701616    1.059844
C     -0.227651    0.822730    0.105788
C     -1.115824   -0.396781    0.074835
C     -5.067902   -0.153088   -0.405067
C     -2.986659    1.092046   -0.454967
C     -4.206002   -1.392755   -0.373026
C     -2.227596   -0.111033   -0.915515
C     -4.373946    0.993643   -1.105415
N     -3.026064   -1.270029   -1.193990
O     -5.076349    2.162947   -0.973546
H      6.623824   -0.361612   -2.066966
H      4.884107   -0.061531   -2.515543
H      5.859342    1.238670   -1.755101
H     -4.715337   -2.436741    1.481004
H     -2.982815   -2.431468    1.110274
H     -3.802403   -0.939293    1.732796
H      6.126369   -0.477469    0.207875
H      4.617465   -1.188043   -0.524354
H      5.099943    1.740436    0.292897
H      3.617061    1.188221   -0.525980
H      4.757285    0.350094    2.198170
H      3.365782    1.476185    1.923126
H      2.599020   -0.871344    2.560972
H      3.557027   -1.498366    1.183389
H      2.080213   -0.379721   -0.402566
H      1.182963   -1.395920    0.803553
H      0.478546    0.548941    2.079047
H      1.475072    1.653496    1.129898
H     -0.806414    1.750699    0.323734
H      0.230207    1.014530   -0.908393
H     -0.492385   -1.259381   -0.288039
H     -1.487889   -0.554253    1.104467
H     -5.278879    0.172872    0.634635
H     -6.038024   -0.306871   -0.905217
H     -3.095842    1.085053    0.654861
H     -2.468964    2.006356   -0.815343
H     -4.818865   -2.206183   -0.822781
H     -1.714132    0.165061   -1.874431
H     -4.205611    0.676570   -2.156361
H     -2.516157   -2.158814   -1.135118
H     -4.813883    2.632879   -0.134108
