79

C      5.159728   -4.018919   -1.077610
C     -2.981175    2.875960   -2.126073
C      3.583406    4.215428   -1.355058
C     -6.494135   -3.152967    0.279457
C     -0.566715    4.099173    1.898785
C      4.508226    0.270162   -0.551407
C      0.756442    4.526320    1.959359
C      4.175816    1.588813   -0.784181
C      1.991862   -5.048715   -0.218653
C     -5.396643    1.783266    0.153137
C      2.919408   -4.828234   -1.381279
C     -4.831088    2.925156   -0.613890
C      0.117368    1.830379    1.564941
C      3.014005    0.154510    1.358133
C      4.342290   -1.885669    0.409589
C     -2.364482    2.529629    1.461696
C     -0.183710   -3.935896   -0.079133
C     -5.246623   -0.708084    0.163532
C      1.130802   -1.426561   -0.234091
C     -0.881640    2.733888    1.695624
C      3.921592   -0.454297    0.524831
C      1.158138   -3.797217   -0.139972
C     -4.606849    0.538386    0.105561
C      1.872489   -2.543745   -0.211828
C      1.465189    2.275434    1.608456
C      2.676410    1.480738    1.101914
C      3.322925   -2.834426   -0.076570
C     -2.670821    2.032715    0.034412
C      1.783009    3.620125    1.814053
C      3.264265    2.207080    0.026938
C     -0.942997   -2.754290   -0.084133
C     -0.273293   -1.553925   -0.159670
C     -4.481386   -1.846402    0.124044
C     -3.239921    0.656791    0.008633
C     -3.110234   -1.745070    0.027615
C     -2.467141   -0.509272   -0.035559
N      3.749269   -3.728256   -1.145120
N     -3.415961    2.967235   -0.741618
O      3.063496    4.123442    1.893277
O      3.015335    3.509787   -0.315444
O     -5.090057   -3.080627    0.181111
O     -2.323107   -2.884396    0.002201
O     -1.123249   -0.465009   -0.130412
H      5.407373   -5.030901   -1.457994
H      5.754188   -3.315027   -1.693330
H      5.507508   -3.978516   -0.025812
H     -2.182197    3.610593   -2.332585
H     -2.546371    1.862731   -2.317059
H     -3.862094    2.997927   -2.771520
H      4.706030    4.122749   -1.264045
H      3.408591    5.321462   -1.202080
H      3.267310    3.926750   -2.360072
H     -6.857224   -4.189180    0.393109
H     -6.900716   -2.576495    1.132897
H     -6.909168   -2.667893   -0.641641
H     -1.372579    4.835399    2.015853
H      5.238907   -0.219390   -1.213656
H      0.958016    5.592885    2.124513
H      4.657259    2.118660   -1.625996
H      2.428351   -5.279437    0.736008
H      1.324322   -5.892255   -0.556055
H     -6.428981    1.526817   -0.160371
H     -5.448235    2.088763    1.235285
H      3.554365   -5.717065   -1.590222
H      2.273819   -4.590522   -2.267067
H     -5.257879    2.855203   -1.658568
H     -5.255563    3.897892   -0.232643
H     -0.106549    0.701690    1.596734
H      2.586906   -0.390409    2.274221
H      5.284764   -1.969204   -0.243475
H      4.821709   -2.300937    1.352644
H     -2.903508    1.960382    2.216443
H     -2.892808    3.524940    1.464647
H     -0.691143   -4.903914   -0.027632
H     -6.327663   -0.701235    0.237494
H      1.491936   -0.368981   -0.445215
H      3.404812   -3.693488    0.775206
H     -1.643573    1.995658   -0.446820
H      3.209841    5.101910    2.043204
