46

C      0.723295   -2.208909   -1.674037
C      2.559486    0.259412   -1.297304
C      3.922251    0.151609   -1.119799
C     -2.655410   -2.138381   -0.449102
C     -1.201725   -2.378425   -0.304850
C     -4.211419   -0.206361   -0.207676
C     -2.190763    1.575833   -0.755658
C     -5.224124    3.254559    0.140014
C      5.918406    0.362391    1.915471
C     -2.934663   -0.680860   -0.458707
C      1.769046    0.323476   -0.167131
C     -1.946999    0.221092   -0.727846
C      4.507956    0.106875    0.128333
C     -4.484889    1.136367   -0.227755
C     -3.466590    2.025531   -0.503515
C      2.369143    0.277972    1.075094
C     -0.509986   -0.194424   -1.007954
C      0.318985    0.443776    0.060210
C      3.713681    0.171561    1.269371
C      1.243167    0.377335    2.030695
N     -0.392121   -1.567209   -1.164204
O      1.516875   -0.521369    3.080031
O      5.818293    0.003404    0.531189
O     -5.631853    1.904492   -0.022482
O     -3.960587    3.326416   -0.473152
O      4.584678    0.104011    2.347113
O      0.117426   -0.014990    1.319067
H      1.113372   -1.839628   -2.658082
H      0.408336   -3.271046   -1.940163
H      1.561677   -2.413425   -0.942684
H      2.090495    0.298010   -2.256236
H      4.528722    0.102283   -2.028061
H     -3.014966   -2.506687   -1.457116
H     -3.208677   -2.664674    0.354177
H     -1.002592   -3.451216   -0.594917
H     -0.892769   -2.208081    0.747382
H     -4.989661   -0.923702    0.005223
H     -1.386614    2.301716   -0.980184
H     -5.206678    3.492873    1.212461
H     -5.932564    3.884287   -0.436588
H      6.646406   -0.283015    2.431290
H      6.166995    1.444913    1.969673
H     -0.270728    0.320912   -1.958504
H      0.121299    1.554074    0.104252
H      1.102405    1.403594    2.429929
H      1.893985   -1.356372    2.662733
