42

C     -0.557597    2.607579   -0.019044
C      0.539209   -2.615723    0.553395
C     -1.826530    3.069873    0.287121
C      1.800086   -2.888588    1.104880
C      3.479900    1.346444   -0.527889
C     -3.442207   -1.422173   -0.827032
C     -0.313632    1.288605   -0.315835
C      0.279953   -1.431641   -0.020497
C     -2.840816    2.148817    0.281600
C      2.812924   -1.954461    1.076959
C      2.079667    1.894664   -0.408739
C     -2.134704   -1.975168   -0.234444
C     -3.668455   -0.166209   -0.067076
C      3.622978    0.237557    0.446654
C      1.063062    0.852565   -0.662749
C     -1.034182   -1.091738   -0.624542
C     -1.331556    0.328963   -0.326294
C      1.294537   -0.462176   -0.061186
C     -2.575835    0.829200   -0.018930
C      2.530716   -0.743499    0.484326
O     -4.122630    2.552348    0.578134
O      4.077947   -2.221900    1.627368
O      1.991876    2.876504   -1.410772
O     -1.994052   -3.305578   -0.620916
O     -4.733148    0.059665    0.515331
O      4.637761    0.188064    1.172217
H      0.232148    3.367755   -0.004014
H     -0.167374   -3.443614    0.650332
H     -1.970671    4.117368    0.514835
H      1.990569   -3.857977    1.567167
H      3.637511    0.946808   -1.553013
H      4.238831    2.111356   -0.306803
H     -4.253695   -2.138454   -0.728021
H     -3.206331   -1.153340   -1.868443
H      1.937284    2.336011    0.597349
H     -2.283483   -1.922987    0.871058
H      1.047392    0.682675   -1.783347
H     -0.877690   -1.229036   -1.740995
H     -4.296109    3.520659    0.795090
H      4.248813   -3.118182    2.052749
H      2.572538    3.623870   -1.099904
H     -2.485005   -3.844907    0.053919
