46

C     -0.683102   -2.704937    1.423692
C      2.515657   -0.180658    1.611094
C      3.899808   -0.320814    1.598971
C     -2.348301   -2.125212   -0.801561
C     -0.839351   -2.182403   -0.849497
C     -3.992194   -0.254398   -0.691492
C     -2.274283    1.274829    0.722990
C     -5.333490    3.094991   -0.038696
C      6.250308    0.772505   -0.950237
C     -2.741565   -0.764979   -0.375531
C      1.857744    0.279813    0.480177
C     -1.883957    0.009899    0.335572
C      4.648439   -0.012099    0.482649
C     -4.381800    1.014380   -0.302143
C     -3.518109    1.811504    0.421451
C      2.631575    0.578877   -0.616369
C     -0.511168   -0.416588    0.740642
C      0.456788    0.555934    0.116381
C      4.006617    0.446608   -0.648300
C      1.684071    1.037056   -1.667329
N     -0.238520   -1.776870    0.400792
O      2.038593    0.374685   -2.847269
O      6.012973   -0.056093    0.199176
O     -5.530842    1.778046   -0.462985
O     -4.130662    3.027709    0.691391
O      4.994657    0.672307   -1.597132
O      0.456353    0.513624   -1.255367
H      0.129293   -2.952520    2.137930
H     -1.476108   -2.172641    2.015311
H     -1.118090   -3.617131    0.974688
H      1.927760   -0.416042    2.467373
H      4.420416   -0.681035    2.481895
H     -2.729259   -2.850316   -0.052857
H     -2.713006   -2.365406   -1.827398
H     -0.526895   -3.247733   -1.009693
H     -0.499994   -1.572283   -1.685684
H     -4.688903   -0.844862   -1.252076
H     -1.601389    1.909472    1.293609
H     -6.122236    3.425350    0.677890
H     -5.279380    3.819927   -0.877651
H      6.369873    1.800889   -0.555753
H      7.087355    0.415260   -1.546748
H     -0.444764   -0.291888    1.841142
H      0.216202    1.594238    0.435774
H      1.662590    2.132156   -1.780349
H      2.340293   -0.533150   -2.581474
