28

C     -2.056386   -1.202038   -0.891484
C     -0.726781   -0.917100   -1.586268
C      2.011035   -0.663351   -0.150264
C      1.129152    0.397138   -0.708912
C     -1.939279   -0.464294    0.450259
C     -1.038783    0.660977    0.095771
C      1.102042    1.525088    0.332637
C     -0.057906    1.027559    1.198243
N     -0.197256    0.150147   -0.915780
O      2.096382   -1.808787   -0.892422
O     -1.456755   -1.320400    1.404805
O      2.276259    1.597058    1.045959
O     -0.534966    1.994391    2.046127
H     -2.231163   -2.270052   -0.739389
H     -2.906945   -0.746640   -1.465849
H     -0.980503   -0.648037   -2.652512
H     -0.174594   -1.861896   -1.639791
H      1.780137   -0.896841    0.929548
H      3.054822   -0.230988   -0.103693
H      1.627280    0.817173   -1.615699
H     -2.964556   -0.062769    0.688778
H     -1.557877    1.568528   -0.242472
H      0.800574    2.441994   -0.170613
H      0.239528    0.136935    1.786294
H      2.505323   -2.516646   -0.311604
H     -2.186561   -1.614354    2.035955
H      2.939156    2.054823    0.486812
H     -0.551376    2.852381    1.585565
