28

C      2.322862   -0.923704   -0.675312
C      0.977980   -1.009267   -1.422120
C     -2.235552   -1.111198   -0.626357
C     -1.158575   -0.043804   -0.794215
C      2.136700    0.254568    0.298878
C      0.803933    0.740408   -0.073248
C     -1.445417    1.010602    0.288842
C     -0.097487    1.213974    1.004831
N      0.111317   -0.520505   -0.413394
O     -2.341714   -1.540546    0.687387
O      2.293561   -0.117503    1.602276
O     -2.435632    0.625706    1.142593
O      0.103988    2.549576    1.308617
H      3.154963   -0.767028   -1.355819
H      2.380993   -1.824730   -0.048003
H      1.069845   -0.286074   -2.257435
H      0.784637   -2.039084   -1.760700
H     -2.092571   -1.958565   -1.318435
H     -3.198345   -0.601798   -0.872364
H     -1.244885    0.391602   -1.793387
H      2.914334    1.019141    0.007425
H      0.768677    1.448437   -0.910285
H     -1.673248    1.955046   -0.216194
H     -0.130820    0.571941    1.897022
H     -2.117462   -2.522591    0.756314
H      3.216022    0.116259    1.882141
H     -2.160816    0.358224    2.039309
H     -0.707284    3.010910    1.621633
