54

C      3.377857    1.173654   -0.320531
C     -4.298006    1.359106   -1.612867
C      7.395712    0.116552    0.366085
C     -6.951935   -0.424126    1.111924
C      2.699781   -0.106138   -0.826106
C     -2.977136    1.661081   -0.993818
C      6.412684   -0.830179    0.503034
C     -5.618669   -0.354564    1.442298
C      5.772338    1.742486   -0.215957
C     -6.538290    0.639972   -0.935925
C      0.485870   -2.175526   -0.288598
C     -0.610987   -0.490594    1.123215
C      4.802584    0.775982   -0.072432
C     -5.180594    0.716085   -0.609379
C      7.092850    1.412360    0.005889
C     -7.435995    0.067120   -0.073958
C      1.906732   -2.281485    0.135917
C     -1.050634    0.617425    0.221907
C      5.070844   -0.532626    0.287290
C     -4.717168    0.214544    0.589100
C      2.696260   -1.055642    0.337001
C     -2.493598    0.454492   -0.226190
F      8.022323    2.384400   -0.143019
F     -8.764650   -0.036601   -0.332256
N     -0.482008   -1.765747    0.611837
O      2.094240   -3.153776    1.213582
O     -1.064487    1.786589    1.021008
O      4.081333   -1.492496    0.427146
O     -3.355827    0.302589    0.889220
H      2.945997    1.371886    0.681401
H      3.287367    2.006971   -1.026997
H     -4.752153    2.324969   -1.943647
H     -4.114184    0.693533   -2.501899
H      8.440172   -0.104628    0.533197
H     -7.672528   -0.885963    1.805812
H      1.739108    0.156597   -1.242473
H      3.391075   -0.477296   -1.638654
H     -2.198587    1.921202   -1.747757
H     -3.121004    2.484303   -0.267619
H      6.706172   -1.812719    0.783664
H     -5.284411   -0.755755    2.385357
H      5.525823    2.755281   -0.499579
H     -6.907027    1.039947   -1.888908
H      0.501057   -1.627780   -1.271496
H      0.198745   -3.224074   -0.626280
H      0.277014   -0.177173    1.701192
H     -1.424097   -0.543990    1.927628
H      2.425608   -2.833771   -0.732102
H     -0.450995    0.833942   -0.643254
H      2.528260   -0.552620    1.286459
H     -2.637974   -0.432435   -0.872910
H     -1.177927   -2.482179    0.921001
H      1.652475   -2.731182    2.000576
H     -0.249414    2.327996    0.862865
