46

C      0.946676   -2.148985    1.321990
C     -2.560844   -1.286305    1.161337
C     -3.929424   -1.469439    0.923167
C      1.933509   -1.667502   -1.914433
C      1.009559   -2.492467   -1.057635
C      3.819723   -0.167789   -1.331548
C      2.196803    1.191498    0.486115
C      5.408304    2.758913    0.107445
C     -6.234372    0.899893   -0.585776
C      2.530321   -0.537079   -1.161723
C     -1.926225   -0.151545    0.714773
C      1.720253    0.149688   -0.247598
C     -4.620432   -0.502381    0.240771
C      4.341626    0.887444   -0.603886
C      3.532067    1.552817    0.291771
C     -2.614928    0.823079    0.028940
C      0.335406   -0.361720   -0.170212
C     -0.544501    0.308825    0.808073
C     -3.957913    0.644351   -0.205342
C     -1.683965    1.898172   -0.312368
N      0.434447   -1.781027    0.038892
O     -1.283875    1.904588   -1.628525
O     -5.950954   -0.426771   -0.125166
O      5.575164    1.512040   -0.527906
O      4.260865    2.568084    0.905152
O     -4.941625    1.393974   -0.844329
O     -0.644536    1.676927    0.582760
H      1.244743   -1.297603    1.949866
H      1.877672   -2.758782    1.138457
H      0.237134   -2.839366    1.823457
H     -2.065713   -2.083018    1.705367
H     -4.410825   -2.386933    1.292000
H      2.774372   -2.295495   -2.275291
H      1.398734   -1.328309   -2.835031
H      0.239004   -2.951007   -1.711057
H      1.610495   -3.330246   -0.644778
H      4.477455   -0.673931   -2.028853
H      1.567871    1.709313    1.187868
H      5.300578    3.597630   -0.611686
H      6.262004    3.005047    0.787588
H     -6.854643    0.788852   -1.483658
H     -6.689556    1.519574    0.199259
H     -0.107856   -0.220820   -1.191320
H     -0.128881    0.221186    1.853050
H     -2.087459    2.918219   -0.077539
H     -1.796261    1.228405   -2.125328
