46

C     -0.505787   -2.817668   -0.614440
C     -1.154640    0.988395   -0.829161
C     -2.257246    1.574532   -1.457281
C      2.969102   -1.791371   -1.245090
C      1.792641   -2.666123   -0.966021
C      3.910327    0.409488   -0.830048
C      1.887186    1.102025    0.854243
C      4.128938    3.859286    0.182330
C     -5.754127    1.466991   -0.419329
C      2.890274   -0.474448   -0.568265
C     -1.310206    0.148790    0.249976
C      1.849435   -0.135970    0.289688
C     -3.544659    1.339148   -1.026284
C      3.917902    1.665506   -0.236745
C      2.891074    2.009037    0.614336
C     -2.605879   -0.075602    0.667169
C      0.813652   -1.142114    0.507387
C     -0.433990   -0.634348    1.161724
C     -3.712469    0.485855    0.070919
C     -2.456745   -1.016743    1.825292
N      0.582246   -1.875444   -0.693962
O     -3.530131   -1.869446    1.934288
O     -4.796485    1.769928   -1.441898
O      4.826859    2.740698   -0.333020
O      3.153047    3.310425    1.058991
O     -5.081622    0.434350    0.277450
O     -1.267340   -1.693200    1.510003
H     -0.386179   -3.503573   -1.503990
H     -1.502304   -2.358390   -0.740284
H     -0.439386   -3.491881    0.267151
H     -0.155289    1.178018   -1.175460
H     -2.101727    2.236080   -2.310859
H      3.202216   -1.677514   -2.326421
H      3.871466   -2.306230   -0.802102
H      1.966343   -3.270921   -0.052176
H      1.593648   -3.377845   -1.797189
H      4.738986    0.155021   -1.506048
H      1.080821    1.371479    1.522025
H      3.642884    4.371550   -0.691891
H      4.826950    4.543229    0.708974
H     -5.921929    2.355107    0.241463
H     -6.719524    1.160663   -0.827243
H      1.253826   -1.884991    1.241708
H     -0.179911   -0.116644    2.087878
H     -2.262713   -0.436629    2.745748
H     -3.709533   -2.058507    2.893108
