57

C     -0.102067    2.173110    1.037693
C      0.635799   -0.170744    1.528506
C     -6.072922   -0.475776    3.020418
C      6.332003   -1.923600   -1.472836
C      4.412823    2.412481    1.500694
C     -5.367406   -0.141248   -1.684640
C     -2.109416    0.488692    2.084834
C     -3.418466    0.172310    2.403124
C      1.437955   -1.813911   -2.367373
C      0.106503   -1.122051   -2.561512
C      3.633358   -1.253613   -1.491043
C      2.662660    0.881199   -0.032040
C     -1.826682   -0.312791   -1.521439
C      2.277309   -0.937561   -1.516067
C      1.781388    0.133023   -0.785974
C     -2.429366   -0.155060   -0.164685
C     -1.598010    0.330126    0.800520
C     -4.241723   -0.318433    1.403832
C      4.528506   -0.507551   -0.735721
C      3.998809    0.537631   -0.032287
C     -3.732629   -0.476300    0.125878
C      0.330450    0.505441   -0.787555
C     -0.180924    0.719888    0.613298
N     -0.408347   -0.560724   -1.363855
O     -5.541403   -0.631214    1.724699
O      5.877419   -0.835422   -0.721189
O      4.856202    1.305298    0.732139
O     -4.565692   -0.966735   -0.859976
H      0.236762    2.856512    0.254975
H     -1.117306    2.582824    1.332959
H      0.469596    2.207701    1.987015
H     -0.017830   -0.837057    2.166049
H      1.275273   -0.887841    0.965060
H      1.273126    0.369711    2.226644
H     -7.138600   -0.789562    3.010903
H     -5.979679    0.574850    3.373574
H     -5.551015   -1.136291    3.743826
H      7.422041   -2.067137   -1.340807
H      5.825791   -2.837995   -1.082177
H      6.113002   -1.796303   -2.563009
H      3.663816    2.119643    2.269795
H      3.923424    3.177974    0.835621
H      5.287581    2.901056    1.959078
H     -5.408992   -0.631583   -2.695900
H     -4.943341    0.882998   -1.792392
H     -6.390533   -0.061028   -1.296673
H     -1.489376    0.871651    2.892334
H     -3.775457    0.312869    3.422463
H      1.341795   -2.786144   -1.877892
H      1.902119   -1.931213   -3.368412
H      0.173178   -0.387603   -3.407345
H     -0.605565   -1.899751   -2.910366
H      4.023075   -2.090810   -2.061438
H      2.303512    1.738164    0.556419
H     -2.055848    0.543966   -2.161688
H     -2.267958   -1.225840   -1.967364
H      0.231279    1.468427   -1.348696
