57

C      0.470816   -2.486794    1.624838
C     -0.870368   -2.091560   -0.353160
C      5.343133   -0.404173   -3.025636
C     -5.024602    2.786244   -2.179849
C     -5.592091   -1.319755    1.576298
C      5.170292    0.663408    1.667057
C      1.750142   -1.519139   -1.289786
C      2.944077   -1.111362   -1.803573
C     -0.355026    1.801975   -0.583853
C      0.502859    1.877270    0.634961
C     -2.803470    1.768783   -0.911639
C     -3.010368   -0.253000    0.947771
C      1.709921    0.362300    1.902783
C     -1.701886    1.259388   -0.278516
C     -1.757601    0.251151    0.655127
C      2.198387   -0.153420    0.571440
C      1.349391   -1.032506   -0.060523
C      3.809645   -0.229530   -1.182549
C     -4.057317    1.238463   -0.595203
C     -4.146838    0.229315    0.334950
C      3.406701    0.256119    0.046676
C     -0.514876   -0.223031    1.273728
C      0.098648   -1.408392    0.592557
N      0.369640    0.851864    1.592544
O      5.024404    0.152649   -1.760217
O     -5.160733    1.765022   -1.244923
O     -5.383900   -0.290715    0.644368
O      4.196426    1.138959    0.746202
H      0.075403   -2.136333    2.623498
H      1.557432   -2.592272    1.748389
H      0.004813   -3.454055    1.415761
H     -0.372827   -3.067975   -0.631790
H     -0.932643   -1.519679   -1.291367
H     -1.858657   -2.260753    0.063724
H      5.295676   -1.512430   -2.939045
H      4.536583   -0.146172   -3.772768
H      6.333865   -0.109168   -3.380945
H     -4.510185    3.664991   -1.735010
H     -4.368751    2.479169   -3.045150
H     -6.021408    3.069762   -2.547169
H     -5.147082   -1.071770    2.569969
H     -6.688154   -1.461005    1.709490
H     -5.173085   -2.281669    1.185458
H      6.028798    1.347168    1.699334
H      5.484220   -0.359900    1.359028
H      4.753303    0.577351    2.686488
H      1.073875   -2.207050   -1.773911
H      3.254366   -1.495302   -2.767664
H      0.072846    1.185686   -1.400478
H     -0.498325    2.818129   -1.057038
H      1.558652    2.035481    0.278944
H      0.251404    2.855995    1.143447
H     -2.743920    2.562562   -1.644730
H     -3.109006   -1.052943    1.686714
H      1.721182   -0.396126    2.685559
H      2.311331    1.255375    2.176109
H     -0.855110   -0.606600    2.293476
