52

C     -3.533677    1.049274    1.943325
C      1.027461   -2.901849    0.501971
C      0.083498   -1.230675   -1.795367
C     -1.264053    2.816367   -0.572400
C     -2.199919    2.480643    0.503392
C     -0.305123    1.712927   -0.923759
C      2.321812    0.361801    0.799839
C      4.876977   -0.077634    0.755976
C      1.811472   -0.229571   -0.462589
C      5.995606    0.660696    0.392142
C     -1.295541   -2.209564    0.583057
C      4.253468    1.906909    0.071536
C     -2.584307    1.273747    0.840500
C      0.125735   -1.721990    0.607473
C      3.763141    0.711032    0.553996
C     -0.545174    0.482249   -0.076925
C     -2.296569   -1.103662    0.771900
C     -2.747466    0.232651   -1.256358
C      0.353129   -0.649641   -0.430389
C     -1.986334    0.142051    0.017337
O     -3.525709   -1.591745    0.323743
O     -2.305432    0.451661   -2.380166
O     -4.135328    0.044922   -1.154307
O      5.580354    1.828750   -0.006798
H     -2.981756    0.982382    2.901043
H     -4.160057    0.143846    1.802932
H     -4.282882    1.891414    2.021691
H      0.452626   -3.875301    0.532871
H      1.644906   -2.949677    1.448251
H      1.666228   -2.954238   -0.376991
H      0.260269   -0.460248   -2.592749
H      0.920771   -1.969704   -1.981821
H     -0.830558   -1.800675   -1.895328
H     -0.741222    3.756721   -0.302056
H     -1.876053    3.079164   -1.482629
H     -2.619945    3.320313    1.080907
H      0.710478    2.081710   -0.679175
H     -0.269591    1.489995   -2.009772
H      2.383465   -0.408443    1.631537
H      1.772438    1.196562    1.222217
H      4.898183   -1.080684    1.125680
H      2.439746   -1.106610   -0.715464
H      1.943734    0.497880   -1.277857
H      7.028246    0.303242    0.441017
H     -1.530675   -2.844972   -0.294815
H     -1.406263   -2.891459    1.469542
H      3.635938    2.749703   -0.190610
H      0.237548   -1.206565    1.612156
H     -0.229591    0.799561    0.966579
H     -2.421106   -0.913526    1.864220
H     -3.404222   -2.203824   -0.455161
H     -4.708674   -0.065913   -1.968433
