11

C     -1.307994    0.075666   -0.225266
C      1.260828    0.365625   -0.127991
C      0.094736   -0.472119   -0.283037
N      0.886335   -0.556498    0.921175
H     -1.589604    0.604653   -1.169722
H     -1.474505    0.779617    0.598437
H     -2.001747   -0.773719   -0.072489
H      2.208453    0.072484   -0.642084
H      1.229838    1.432891    0.167571
H      0.185234   -1.356162   -0.967085
H      0.508428   -0.172438    1.800490
