44

C     -1.009470   -2.225917    0.012609
C     -1.548136   -1.440091    1.215122
C     -3.937733   -1.034219    0.900674
C     -2.492895    0.759072    0.438072
C     -5.028714   -0.256226    0.567347
C     -3.575268    1.565700    0.096239
C     -0.492196   -1.317669   -1.047365
C      1.525250    1.777430    0.863084
C     -2.647952   -0.546184    0.844005
C     -4.853292    1.050773    0.162427
C      2.584293    0.716666    1.007960
C      3.728943    0.984138    0.075338
C      3.297118    0.684401   -1.319136
C      2.744310   -0.697374   -1.378576
C      1.696879   -0.966380   -0.314944
O      2.144642    3.020053    0.948903
O     -5.950543    1.862494   -0.182185
O      4.776123    0.099328    0.390389
O      2.422339    1.629389   -1.846864
O      3.764903   -1.642823   -1.356822
O      0.516058   -0.484763   -0.737016
O      2.097960   -0.568504    0.940207
H     -1.884218   -2.786116   -0.380078
H     -0.307555   -2.947640    0.413807
H     -0.674139   -0.917741    1.643924
H     -1.917135   -2.138091    1.994112
H     -4.162551   -2.057637    1.210980
H     -1.509252    1.162686    0.384802
H     -6.049770   -0.622618    0.605821
H     -3.438298    2.584117   -0.219248
H     -1.358383   -0.703545   -1.407263
H     -0.192650   -1.933190   -1.922569
H      0.831274    1.717607    1.742639
H      0.933691    1.708895   -0.047336
H      2.998219    0.838437    2.052789
H      4.042162    2.036078    0.211363
H      4.203173    0.707197   -1.977523
H      2.224243   -0.806693   -2.374965
H      1.649446   -2.096278   -0.285534
H      1.690889    3.630834    1.591695
H     -6.876878    1.455092   -0.123281
H      4.401478   -0.664061    0.881946
H      2.302072    1.396428   -2.801988
H      3.331564   -2.533055   -1.473562
