35

C     -2.071357   -3.282146    0.592974
C     -3.067345    0.469423    0.583808
C     -3.794538    1.712941    0.127402
C      3.517335    1.116809   -1.132404
C      3.722509    0.411357   -2.229034
C      0.550089   -2.131150    0.303498
C     -1.674600    0.784497    0.434166
C      3.293305    0.170268   -0.028756
C     -2.819725    2.789167    0.481454
C     -0.604145   -1.330375    0.392280
C      1.795285   -1.554502    0.165315
C     -1.513959    2.149853    0.378507
C     -0.493638    0.037268    0.341188
C      1.865138   -0.182204    0.118239
C      0.736437    0.635638    0.203988
C     -0.250056    2.721917    0.238967
C      3.915953   -1.104952   -0.550034
O     -3.131404    3.947478    0.784985
O     -0.150565    3.975942    0.192784
O     -1.845157   -1.888681    0.529835
O      3.651442   -0.964127   -1.935918
O      3.086645   -2.098072    0.055278
O      0.801454    1.931115    0.159811
H     -1.316909   -3.829364    1.156202
H     -3.044036   -3.431954    1.121584
H     -2.220892   -3.658576   -0.450651
H     -3.343231    0.346970    1.672533
H     -3.476464   -0.344423   -0.029121
H     -3.954190    1.652436   -0.962174
H     -4.768205    1.855331    0.604002
H      3.517953    2.209557   -1.075916
H      3.915966    0.809280   -3.206116
H      0.448798   -3.207191    0.345038
H      3.751645    0.499436    0.924966
H      4.970464   -1.218965   -0.308680
