44

C      1.691064    0.070006   -2.151558
C      3.122915    0.509279   -2.081450
C      4.519817   -1.230642   -0.959396
C      3.837531    0.700575    0.256395
C      5.195744   -1.724753    0.150799
C      4.509741    0.218214    1.375228
C      0.872833    0.481846   -0.970357
C     -4.212946    2.333065    0.443739
C      3.841806   -0.025736   -0.916147
C      5.180524   -0.985032    1.314194
C     -3.304506    1.135716    0.430387
C     -4.047108   -0.128380    0.017012
C     -3.125668   -1.263390    0.371161
C     -1.707163   -0.875234    0.579737
C     -1.260332    0.376887   -0.062591
O     -5.227432    2.049541    1.387975
O      5.827263   -1.398980    2.472398
O     -5.269065   -0.232401    0.667291
O     -3.245324   -2.244016   -0.632794
O     -1.482019   -0.789068    1.965474
O     -0.411385    0.035030   -1.130535
O     -2.248897    1.253827   -0.451257
H      1.674830   -1.048595   -2.191046
H      1.241768    0.523431   -3.054879
H      3.161748    1.636443   -2.123672
H      3.618116    0.162886   -3.017430
H      4.529479   -1.803171   -1.865835
H      3.311851    1.648346    0.312069
H      5.731728   -2.664331    0.137681
H      4.468703    0.834219    2.263659
H      1.304773   -0.053620   -0.075637
H      0.954385    1.561198   -0.734140
H     -4.722868    2.432945   -0.531433
H     -3.714387    3.233613    0.799203
H     -2.895088    0.997814    1.459600
H     -4.165374   -0.123846   -1.090784
H     -3.550347   -1.721857    1.312477
H     -1.081590   -1.762309    0.260319
H     -0.601989    0.948062    0.649677
H     -6.091042    2.444013    1.095387
H      5.364079   -1.963338    3.161092
H     -5.977843    0.162514    0.101814
H     -3.983925   -2.031197   -1.252931
H     -1.634401   -1.679571    2.332727
