41

C     -5.630710    0.535155    1.005665
C     -5.764918    1.375797   -0.075368
C      2.311035    0.658046   -0.410437
C     -4.468967   -0.127276    1.276655
C     -4.662906    1.529049   -0.892322
C      0.832347    0.779112   -0.306568
C     -1.394715   -1.412211    1.330304
C      2.891761   -0.492589    0.327730
C     -0.685264   -2.361672    0.351639
C     -3.366849    0.038956    0.441701
C     -2.094421   -0.467832    0.440816
C     -3.474047    0.878737   -0.653137
C      0.006375   -0.349769   -0.837918
C     -1.418206    0.036982   -0.620711
C      5.186041    0.479644    0.784366
N      4.659735    1.379441    1.533138
N      6.599019    0.448348    0.524516
N      0.313160   -1.644621   -0.380057
N      4.352238   -0.517527    0.190372
N     -2.271952    0.856924   -1.280169
H     -6.493820    0.412206    1.649457
H     -6.715429    1.895700   -0.267199
H      2.663177    0.678946   -1.486319
H      2.736384    1.598828    0.058636
H     -4.353781   -0.792931    2.129622
H     -4.738592    2.186320   -1.754265
H      0.585041    1.031918    0.753419
H      0.566691    1.701587   -0.914672
H     -0.622691   -0.972641    1.955687
H     -2.079085   -1.980372    1.989358
H      2.597399   -0.421687    1.388921
H      2.545010   -1.443283   -0.064173
H     -1.481802   -2.761336   -0.340316
H     -0.241676   -3.194822    0.909925
H      0.173684   -0.326601   -1.963242
H      5.310129    2.095991    1.950368
H      7.042619    1.034724   -0.209495
H      7.193928   -0.185382    1.094978
H      0.603561   -2.295825   -1.173062
H      4.818836   -1.270756   -0.352343
H     -2.028340    1.386722   -2.139632
