48

C      6.999812   -0.150556   -0.532146
C     -4.833385   -2.307250   -2.194824
C     -5.997528    1.634844    1.536799
C      2.407275    2.045088    0.505122
C      0.928428    2.057323    0.180459
C     -0.321449   -0.665543   -0.528466
C      4.199646    0.367467    0.027296
C     -2.780537   -0.967293   -0.871348
C     -3.361075    0.950196    0.943480
C      2.498432   -1.736522    0.152959
C     -1.015695    1.408113    1.432785
C      2.858169    0.625476    0.296170
C     -1.716953   -0.321206   -0.231536
C     -2.030941    0.638747    0.676503
C      1.995354   -0.445626    0.359540
C      0.530858   -0.261549    0.643960
C      3.827249   -1.988434   -0.113045
C      4.681447   -0.907057   -0.173944
C     -4.094614   -0.656257   -0.604401
C     -4.399126    0.316451    0.315999
N      0.330579    1.078659    1.067470
O      4.318668   -3.267396   -0.316410
O      6.024588   -1.146385   -0.441480
O     -5.152495   -1.306482   -1.248040
O     -5.727169    0.625973    0.581176
H      7.817980   -0.536430   -1.191338
H      6.624079    0.799620   -0.964429
H      7.476049    0.017284    0.464780
H     -4.308888   -1.807097   -3.043513
H     -4.167734   -3.033728   -1.696352
H     -5.793912   -2.786837   -2.528598
H     -5.539181    1.408354    2.529028
H     -7.077445    1.847629    1.603782
H     -5.488252    2.562759    1.169685
H      2.505606    2.225963    1.594552
H      2.987114    2.753376   -0.103622
H      0.469907    3.044785    0.278243
H      0.811132    1.677325   -0.868960
H     -0.241475   -1.749719   -0.680268
H     -0.019764   -0.112323   -1.436804
H      4.867873    1.231352   -0.018756
H     -2.550894   -1.737834   -1.600706
H     -3.617826    1.727412    1.678611
H      1.810464   -2.582662    0.204192
H     -1.185944    2.492775    1.201473
H     -1.155251    1.259229    2.509100
H      0.303911   -0.944627    1.487539
H      5.302913   -3.377387   -0.506595
