40

C      1.679959    0.552319    2.414105
C     -3.298274   -0.163143    1.184974
C      1.230100   -1.814161    1.093458
C      3.027058    0.500577   -1.131305
C      2.952967    0.647672    0.349673
C      1.597520    0.450297   -1.676662
C     -1.377108   -0.187655   -1.704541
C     -0.702182   -0.394080    0.699980
C      1.548463    0.592434    0.900166
C     -2.900042    0.414650    0.066968
C     -1.469179    0.361477   -0.301738
C      0.988207   -0.815168   -1.098500
C     -0.282319   -1.189125   -1.759647
C     -3.882457    1.093632   -0.780723
C      0.762295   -0.565838    0.371493
O     -0.438639   -2.249014   -2.319561
O     -3.496716    1.632716   -1.828396
O     -5.195310    1.118755   -0.401848
H      1.873600   -0.458685    2.789078
H      0.797105    0.996706    2.922777
H      2.549665    1.180427    2.709040
H     -4.348334   -0.127083    1.459412
H     -2.645700   -0.674349    1.863262
H      1.020122   -2.724935    0.461344
H      2.339422   -1.801337    1.202136
H      0.708698   -1.983438    2.043107
H      3.555830    1.306383   -1.648331
H      3.457522   -0.510298   -1.349802
H      3.556195   -0.084880    0.902930
H      3.364632    1.657057    0.615896
H      1.065947    1.356212   -1.379178
H      1.590261    0.345541   -2.776225
H     -1.120172    0.598435   -2.456096
H     -2.306969   -0.661826   -2.040675
H     -1.156236   -1.419840    0.816412
H     -0.778197    0.093950    1.683484
H      1.034856    1.543535    0.651073
H     -1.091150    1.418166   -0.356041
H      1.718655   -1.646330   -1.260952
H     -5.930096    1.610242   -0.930548
