28

C      5.320126    0.304600   -1.533177
C      0.651605    0.453617    1.846440
C      4.175024   -0.034184   -1.310087
C     -4.090365   -0.453384    0.321422
C     -3.519247    0.716047    0.770338
C     -3.351968   -1.357836   -0.411438
C     -2.196086    0.925729    0.452509
C     -2.035141   -1.118754   -0.711233
C      2.773177   -0.426513   -1.023818
C     -0.035170    0.363166   -0.563743
C      0.919147   -0.122821    0.482292
C     -1.448088    0.035072   -0.275837
N      2.280306    0.228379    0.142679
H      6.307600    0.612353   -1.715605
H     -0.388826    0.408402    2.154810
H      1.112963    1.460481    1.916767
H      1.221912   -0.179878    2.581853
H     -5.136056   -0.617924    0.573684
H     -4.101191    1.446653    1.357144
H     -3.851130   -2.283097   -0.751303
H     -1.766073    1.872963    0.827863
H     -1.467703   -1.856890   -1.297705
H      2.205116   -0.286376   -1.945022
H      2.842290   -1.524464   -0.773792
H      0.052774    1.467256   -0.621722
H      0.236519   -0.064633   -1.548270
H      0.849598   -1.227598    0.532047
H      2.438887    1.259631    0.151173
