24

C      2.358762    0.013819    0.060155
C      1.102412    0.325191   -0.769134
C      0.243531    1.346303   -0.128112
C     -1.074518    0.896706    0.365797
C     -1.627145   -0.325039   -0.277525
C     -0.507523   -1.321118   -0.457250
O      2.045648   -0.734225    1.185121
O      0.028932    2.478703   -0.951033
O     -1.023706    0.657972    1.758308
O     -2.602548   -0.898025    0.525912
O     -1.065244   -2.390314   -1.198218
O      0.526115   -0.825678   -1.168129
H      3.063006   -0.536274   -0.601891
H      2.857078    0.970066    0.315317
H      1.529756    0.811232   -1.699194
H      0.815349    1.762297    0.755171
H     -1.853567    1.708279    0.256797
H     -2.095695   -0.081544   -1.240698
H     -0.277426   -1.737324    0.533261
H      2.093777   -1.696159    0.900759
H      0.088106    3.314246   -0.454344
H     -1.938516    0.644611    2.147296
H     -2.235659   -1.241345    1.388844
H     -0.450925   -3.142381   -1.247210
