54

C      7.889208   -0.324828   -0.576722
C     -1.689636   -0.269488   -3.155399
C     -3.359889    1.219700   -2.200160
C      6.419926   -0.660673   -0.550770
C      5.624570    0.458043    0.075664
C      4.160377    0.075620    0.079119
C      3.317820    1.169389    0.699772
C     -4.767709   -0.973168   -0.012067
C     -3.759351   -1.296028   -1.047391
C     -3.008417   -0.691929    1.595985
C      1.286801    0.170285    1.787012
C      1.097161    1.193322   -0.348057
C     -5.544714   -0.375051    2.198901
C      1.890402    0.837349    0.722306
C     -4.456561   -0.683934    1.240610
C     -2.285869    0.004555    0.513662
C     -2.436243   -0.662931   -0.842981
C     -0.075942   -0.120588    1.756506
C     -0.241966    0.904997   -0.373064
C     -0.851279    0.241037    0.683713
C     -2.134486    0.416967   -1.881039
O     -5.421294    0.913297    2.741818
O     -0.651445   -0.781902    2.820047
O     -1.084904    1.250160   -1.446514
H      8.168521   -0.061018   -1.611776
H      8.133692    0.537895    0.089170
H      8.507211   -1.201552   -0.250705
H     -0.721129   -0.817413   -2.971645
H     -2.491604   -0.977396   -3.445348
H     -1.573362    0.489191   -3.946927
H     -3.098894    2.256390   -2.529232
H     -4.094789    1.268485   -1.382362
H     -3.897929    0.771883   -3.079843
H      6.039985   -0.804493   -1.604554
H      6.300356   -1.610747    0.026930
H      6.000153    0.561943    1.128764
H      5.760457    1.368765   -0.512059
H      4.034917   -0.889460    0.610118
H      3.870103   -0.057768   -1.000658
H      3.678856    1.297545    1.743196
H      3.460965    2.079504    0.080607
H     -5.831386   -0.972182   -0.292683
H     -3.609982   -2.414235   -0.991020
H     -4.195869   -1.100500   -2.047766
H     -2.721081   -1.766536    1.684131
H     -2.835180   -0.161225    2.560226
H      1.889498   -0.113561    2.626798
H      1.565934    1.714517   -1.181435
H     -5.514950   -1.101212    3.062795
H     -6.540819   -0.458844    1.769580
H     -2.762856    1.020386    0.380895
H     -1.584572   -1.402839   -0.909822
H     -5.707048    1.606490    2.094987
H     -0.145758   -1.076215    3.636735
