40

C     -2.047747    2.662280    0.542202
C      3.058110    1.562988   -0.961339
C      3.468279   -0.822539   -0.534533
C     -2.176270   -1.358458   -1.669466
C     -3.050613   -0.809489    1.523844
C     -2.928497    0.636315    1.450900
C      0.876380   -1.256317    0.393414
C     -2.363536   -1.551749    0.706440
C     -0.249766   -1.911692   -0.354659
C      0.150524    0.967834   -0.095660
C     -2.127728    1.160214    0.574962
C      1.178365   -0.018823   -0.472801
C     -1.236387    0.434737   -0.367531
C      2.590372    0.366875   -0.196917
C     -1.455201   -1.000912   -0.313560
O      2.716975    0.571322    1.181594
H     -1.140831    2.954134    1.128559
H     -1.924085    2.957702   -0.530073
H     -2.950024    3.122099    0.962796
H      3.011568    2.442595   -0.276353
H      2.518089    1.754336   -1.896355
H      4.142933    1.451298   -1.215732
H      3.743653   -1.406037    0.365239
H      2.945682   -1.465213   -1.271008
H      4.415295   -0.439607   -1.006173
H     -1.426231   -1.170116   -2.457327
H     -2.340020   -2.452595   -1.587295
H     -3.094005   -0.777833   -1.755791
H     -3.730771   -1.251260    2.279078
H     -3.526061    1.236299    2.148571
H      0.486338   -0.916162    1.373443
H      1.766979   -1.892649    0.493985
H     -2.478630   -2.649054    0.795553
H     -0.493349   -2.865464    0.105177
H      0.087038   -2.076766   -1.421002
H      0.229444    1.122686    1.021762
H      0.266107    1.933254   -0.603250
H      1.070452   -0.273523   -1.541666
H     -1.520008    0.870678   -1.383215
H      3.537179    0.158610    1.537728
