44

C      0.603420   -2.407864    0.480721
C     -2.614120   -1.319445   -0.394353
C     -3.919310   -1.272739   -0.844436
C      2.398898   -1.820414   -1.371435
C      0.950152   -1.874985   -1.803272
C      3.999416   -0.275108   -0.370496
C      2.052904    1.279665    0.688406
C      5.403187    2.695884    1.174127
C     -6.321173    1.454564   -0.521344
C      2.668892   -0.593707   -0.559720
C     -2.086660   -0.218106    0.280532
C      1.657546    0.185150   -0.028499
C     -4.687877   -0.147446   -0.626119
C      4.369893    0.838675    0.359753
C      3.391995    1.612192    0.886678
C     -2.847277    0.902618    0.500737
C      0.274252   -0.172134   -0.242532
C     -0.707339   -0.007428    0.853580
C     -4.158652    0.932752    0.040777
C     -2.020407    1.839047    1.233496
N      0.166288   -1.589168   -0.633684
O     -2.369955    2.968322    1.610396
O     -6.014727    0.150594   -0.973754
O      5.627010    1.382464    0.699059
O      4.024297    2.655319    1.565944
O     -5.136100    1.905567    0.116644
O     -0.801039    1.249479    1.426898
H      1.000515   -3.370039    0.089298
H     -0.290585   -2.684294    1.096060
H      1.386218   -1.920797    1.093817
H     -2.070278   -2.224796   -0.591857
H     -4.340511   -2.133670   -1.375385
H      2.703488   -2.742832   -0.840499
H      2.998756   -1.813529   -2.320134
H      0.722734   -1.219291   -2.637045
H      0.730548   -2.914222   -2.098588
H      4.814491   -0.870865   -0.777385
H      1.363114    1.954434    1.142609
H      5.441840    3.449113    0.336549
H      6.045765    2.958224    2.013688
H     -7.140819    1.457942    0.221738
H     -6.571480    2.096037   -1.395793
H     -0.081450    0.378963   -1.163702
H     -0.615862   -0.754125    1.667237
