45

C      0.870425   -3.430005    0.978065
C     -5.005258    2.243844    0.431937
C      2.799660    0.263788   -2.292324
C      3.628734    1.309382   -1.978464
C     -1.789450   -1.464203    1.737100
C     -1.364507   -2.747325    1.053478
C     -2.885497    0.435912    0.572711
C     -0.868111    0.497554   -1.334433
C      1.130769   -1.550510   -1.410062
C      4.074793    2.800006    1.333085
C     -1.835783   -0.456220    0.638790
C      2.066366   -0.421201   -1.344097
C     -0.817531   -0.446791   -0.298643
C     -1.923903    1.383660   -1.388301
C      3.744804    1.702622   -0.672652
C     -2.942560    1.381049   -0.457860
C      2.180576   -0.029796   -0.036795
C      3.020825    1.033939    0.302197
C      1.320531   -0.888558    0.782327
C      0.268181   -1.408569   -0.171894
N     -0.151771   -2.670114    0.327812
O     -1.967768    2.318572   -2.419414
O      1.474877   -1.104344    1.996954
O     -3.975029    2.289298   -0.558109
O      4.482743    2.706968   -0.016426
O      3.320470    1.627565    1.518435
H      0.715764   -4.505193    0.698899
H      0.820768   -3.379224    2.089984
H      1.907886   -3.094489    0.714983
H     -4.527768    2.368501    1.417857
H     -5.653718    3.124119    0.225875
H     -5.567805    1.291206    0.383114
H      2.699670   -0.057451   -3.327641
H      4.182407    1.818698   -2.734747
H     -1.179798   -1.172489    2.588576
H     -2.844157   -1.650392    2.085975
H     -2.178940   -2.963564    0.300189
H     -1.303052   -3.593876    1.770107
H     -3.672202    0.410423    1.318178
H     -0.070311    0.491992   -2.054102
H      0.487086   -1.419455   -2.292875
H      1.654274   -2.534425   -1.410956
H      4.971846    2.838172    1.984189
H      3.418140    3.664287    1.451880
H     -2.716681    2.986636   -2.502903
