54

C      6.433020    1.393599    0.001057
C     -2.597059   -3.229254    0.045961
C     -3.191165   -2.379823   -2.186509
C      4.949177    1.708372    0.137120
C      4.169375    1.188049   -1.017944
C      4.208886   -0.268965   -1.250597
C      3.671701   -1.156064   -0.190910
C     -4.542584    0.777390    0.096919
C     -4.218396   -0.681517    0.083747
C     -2.222311    1.197672    0.915082
C      1.818711   -0.032617    1.015530
C      1.267252   -1.592656   -0.715019
C     -3.848012    3.089404    0.524621
C      2.225567   -0.916270    0.051783
C     -3.591309    1.600498    0.486830
C     -1.911778   -0.252753    0.687693
C     -2.798921   -0.769362   -0.392637
C      0.451572    0.176642    1.213990
C     -0.092452   -1.392669   -0.526401
C     -0.472613   -0.505756    0.441092
C     -2.391558   -2.112241   -0.921187
O     -2.900257    3.651745   -0.356878
O      0.114646    1.071368    2.191427
O     -1.039547   -2.048631   -1.270387
H      6.639219    1.195302   -1.066300
H      7.044952    2.189510    0.425944
H      6.645891    0.443033    0.556910
H     -3.625274   -3.649826   -0.060477
H     -2.347200   -2.969452    1.090814
H     -1.911086   -4.072627   -0.242855
H     -2.833209   -3.291494   -2.712146
H     -3.201822   -1.484181   -2.837603
H     -4.250989   -2.587079   -1.911785
H      4.881520    2.835166    0.086800
H      4.625374    1.429771    1.131147
H      4.610922    1.672082   -1.939304
H      3.149108    1.619700   -0.953366
H      3.672343   -0.471786   -2.208585
H      5.271903   -0.549460   -1.471371
H      4.168279   -1.015602    0.800979
H      3.822317   -2.223100   -0.438835
H     -5.504639    1.149163   -0.196295
H     -4.934826   -1.258960   -0.521875
H     -4.219209   -0.999181    1.161062
H     -1.518214    1.805927    0.276040
H     -2.153014    1.488218    1.985755
H      2.545503    0.489265    1.615929
H      1.593743   -2.285801   -1.470479
H     -3.555259    3.409804    1.543730
H     -4.869892    3.330207    0.242302
H     -2.159010   -0.849065    1.616291
H     -2.712131   -0.049627   -1.259061
H     -3.104947    4.601970   -0.536656
H      0.737706    1.581962    2.768142
