25

C      1.410396    1.279677   -1.717736
C     -2.744606   -0.969104   -0.854408
C      2.147302   -1.348363    1.523946
C      0.841559   -1.038057    1.152183
C      2.949822    0.058397   -0.222103
C      1.647522    0.351060   -0.572082
C     -1.909779   -0.250342    0.203367
C      3.202229   -0.799618    0.836155
C      0.555926   -0.190310    0.106921
C     -2.710852    0.921069    0.643234
Cl     4.850411   -1.205328    1.322753
O     -3.847225    0.705333    1.136471
O     -2.275062    2.233386    0.539699
O     -0.686945    0.160086   -0.314964
H      0.411058    1.067813   -2.152074
H      2.214327    1.164963   -2.460877
H      1.416272    2.333402   -1.315896
H     -2.526059   -2.065273   -0.792673
H     -2.605621   -0.550693   -1.853313
H     -3.809205   -0.865457   -0.561346
H      2.336082   -2.031505    2.366643
H      0.018113   -1.474115    1.698607
H      3.789613    0.502238   -0.778299
H     -1.845183   -0.943818    1.059790
H     -2.830097    2.954560    1.006002
