52

C      5.435951   -0.765886    0.191848
C      4.913853    1.459305    0.885955
C     -3.702285    1.136017    1.693951
C     -3.623269   -1.250173    1.319235
C     -3.077194    0.417090   -1.796825
C      0.249295    0.250111    2.136489
C     -1.086453   -0.409825    1.921059
C     -3.884325    0.321862   -0.593271
C     -1.600964    0.640871   -1.672652
C      2.418022    0.182665    0.900577
C      1.183109   -0.014360   -1.554883
C     -1.305908   -1.636603   -0.910908
C      4.598177    0.423176   -0.251824
C      1.035158    0.097288    0.851170
C      3.167402    0.172489   -0.283935
C      0.424640   -0.004232   -0.376793
C      2.563400    0.075302   -1.522567
C     -1.708149    0.228490    0.694663
C     -3.198948    0.080788    0.688248
C     -1.035500   -0.176475   -0.574989
O     -0.752740   -2.072483   -2.066580
O      3.302879    0.063416   -2.693433
H      4.909997   -1.476785    0.870835
H      5.844749   -1.295418   -0.733462
H      6.315658   -0.391301    0.731414
H      4.782720    0.966020    1.869225
H      4.260497    2.322973    0.810901
H      5.985147    1.793603    0.790055
H     -3.763617    0.720946    2.717217
H     -4.725553    1.500787    1.371877
H     -3.026611    1.993880    1.729242
H     -4.260822   -1.120056    2.216691
H     -4.282178   -1.815472    0.596407
H     -2.766453   -1.876578    1.639694
H     -3.218042   -0.464166   -2.482888
H     -3.424964    1.284550   -2.456941
H      0.791970   -0.079931    3.018936
H      0.063967    1.380098    2.232786
H     -0.910615   -1.493109    1.837085
H     -1.801558   -0.218246    2.751921
H     -4.614785   -0.539494   -0.735668
H     -4.589081    1.207838   -0.542538
H     -1.418439    1.722988   -1.504539
H     -1.140083    0.444752   -2.670075
H      2.864688    0.255014    1.873081
H      0.749255   -0.108983   -2.545556
H     -2.408274   -1.831935   -0.975849
H     -0.960614   -2.228093   -0.012027
H      4.982252    0.868963   -1.149614
H     -1.497235    1.338555    0.801172
H     -1.335789   -2.206619   -2.838074
H      4.277661    0.126388   -2.730078
