45

C     -0.846550   -3.434767    1.181866
C      5.183943    2.144234   -0.003949
C     -2.878342   -0.389460   -2.204842
C     -3.829616    0.609195   -2.212115
C      1.844312   -1.069545    2.127477
C      1.261945   -2.423636    1.765575
C      2.955255    0.506257    0.595075
C      0.844443    0.365115   -1.149232
C     -1.013473   -1.664022   -0.901327
C     -4.161317    3.150232    0.307025
C      1.882083   -0.278704    0.877322
C     -2.080911   -0.652870   -1.115872
C      0.816530   -0.364400    0.020731
C      1.932730    1.170397   -1.450822
C     -3.983365    1.383378   -1.056748
C      2.971511    1.228177   -0.573169
C     -2.256580    0.127488    0.007524
C     -3.200048    1.142697    0.046946
C     -1.324785   -0.307543    1.041075
C     -0.327944   -1.225117    0.371056
N     -0.057426   -2.262311    1.278284
O      1.938354    1.905866   -2.651414
O     -1.326687    0.001466    2.249044
O      4.065021    2.030796   -0.865324
O     -4.819456    2.439986   -0.725224
O     -3.577474    2.064922    1.036540
H     -0.729342   -4.003734    2.151101
H     -1.915802   -3.180749    1.115468
H     -0.515972   -4.158976    0.398995
H      5.951698    2.751292   -0.526792
H      5.640170    1.154249    0.211457
H      4.851912    2.667184    0.897791
H     -2.783328   -0.978269   -3.127184
H     -4.455983    0.827012   -3.046880
H      1.261708   -0.622179    2.931294
H      2.879965   -1.249687    2.509233
H      1.233473   -3.044625    2.690228
H      1.947515   -2.875210    1.009724
H      3.782657    0.546311    1.303922
H      0.043871    0.345466   -1.866443
H     -0.293970   -1.682521   -1.751912
H     -1.478044   -2.652416   -0.824260
H     -4.828671    3.743047    0.933215
H     -3.315130    3.727573   -0.121309
H      2.711118    2.488403   -2.883152
