56

C      6.529720   -1.792156    0.641880
C     -4.183849   -2.622587   -2.811805
C     -5.536134   -2.543145   -3.042124
C      5.373656    1.823985    2.304724
C      4.437555    2.635325    1.661666
C     -4.266503    1.304719    2.409344
C     -3.642369   -1.878945   -1.743290
C     -6.319477   -1.754792   -2.244590
C     -5.412867    1.042141    1.709077
C      5.738871    0.643419    1.715069
C      3.926791    2.224816    0.485530
C     -3.076231    0.786033    2.016350
C      1.825834   -0.254861   -2.332721
C      3.208102    0.239987   -2.432919
C      0.585048    1.132315   -0.697677
C     -0.584487   -0.726592    0.557709
C      0.383085    0.376838    0.557842
C     -4.427091   -1.084961   -0.938613
C     -5.776787   -1.016860   -1.184824
C     -5.365329    0.240026    0.594641
C      5.221865    0.246477    0.541033
C      4.237490    1.029895   -0.190700
C     -2.994363   -0.028687    0.881452
C     -4.192137   -0.297449    0.167932
N      0.800650    0.539609   -1.914735
N     -6.337311   -0.215729   -0.254952
O      0.159686    1.332954    1.585450
O      5.576505   -0.951518   -0.074013
O      3.779670    0.655873   -1.213286
O     -1.890202   -0.591947    0.381203
H      6.133956   -1.971331    1.665888
H      7.491056   -1.291739    0.717697
H      6.638518   -2.718597    0.075613
H     -3.560685   -3.231529   -3.418359
H     -5.978380   -3.126941   -3.874665
H      5.776808    2.154877    3.221583
H      4.162527    3.559394    2.142143
H     -4.321904    1.934399    3.288305
H     -2.591738   -1.951185   -1.570440
H     -7.383620   -1.682389   -2.421955
H     -6.365573    1.453401    2.007977
H      6.478444    0.039257    2.243890
H      3.213055    2.890134   -0.027251
H     -2.176526    0.975487    2.590460
H      1.582324   -0.634284   -3.404218
H      1.896763   -1.257043   -1.763945
H      3.837933   -0.557493   -2.921063
H      3.248395    1.097811   -3.166104
H      1.274321    1.998306   -0.551459
H     -0.426939    1.746203   -0.836987
H     -0.413572   -1.263987    1.569624
H     -0.169206   -1.520418   -0.161411
H      1.429274   -0.044348    0.830378
H      0.046985    0.732481   -2.651318
H     -7.329927    0.021484   -0.189320
H     -0.271681    2.153865    1.230758
