47

C      3.433987    2.187833   -1.956115
C     -1.213748   -2.843239   -1.026135
C     -0.410288   -2.288389    1.259104
C      3.600910    1.010313    0.865052
C      0.830808    2.929281    2.082980
C      2.542426    2.141061   -1.001786
C     -4.452730   -1.002135    0.938884
C     -3.306814   -1.706138    0.604313
C     -4.472269    0.397984    0.956819
C      1.514993   -1.344719   -0.683312
C     -1.660833    2.465582    0.161752
C     -1.179471    1.181249    0.013630
C     -2.138937   -1.001354    0.275852
C      0.087403   -0.812591   -0.733887
C     -3.326889    1.094675    0.634165
C      2.517278   -0.266899   -1.021432
C     -2.214461    0.348080    0.308436
C      0.110110    0.637909   -0.387570
C      1.167053    0.887175    0.634654
C     -0.886117   -1.685365   -0.061701
C      2.483075    0.929209   -0.133634
Cl     4.142557   -1.013335   -0.847569
N      0.972877    2.001813    1.429961
N     -2.966114    2.380097    0.538783
H      4.132270    1.355885   -2.124763
H      3.491338    3.058034   -2.595806
H     -1.533625   -3.740855   -0.442565
H     -1.992035   -2.543640   -1.757679
H     -0.324337   -3.136586   -1.612952
H      0.458683   -2.925992    1.181052
H     -1.259230   -2.989633    1.541856
H     -0.426871   -1.522493    2.032370
H      3.900118    0.007257    1.250050
H      3.398188    1.725009    1.665280
H      4.500318    1.401839    0.303017
H      1.869542    2.982965   -0.865094
H     -5.382665   -1.486385    1.201014
H     -3.320774   -2.785880    0.598727
H     -5.348466    0.972940    1.213043
H      1.808528   -1.757822    0.276725
H      1.632879   -2.138303   -1.447615
H     -1.137192    3.394836    0.015380
H     -0.164428   -0.851916   -1.841600
H      2.408767   -0.009851   -2.105310
H      0.430141    1.221627   -1.308878
H      1.257781   -0.057978    1.252138
H     -3.573735    3.198845    0.720365
