30

C     -1.208243    2.315413   -0.030275
C     -0.912904   -2.577110   -1.070139
C      3.684865   -0.003781    0.671212
C     -3.783134   -0.369042    0.037083
C     -3.145833    0.837710    0.128067
C     -3.024486   -1.458652   -0.356000
C      1.315097   -0.108979    0.130722
C     -1.782568    0.953326   -0.166716
C     -1.679278   -1.366786   -0.651288
C      2.683575    0.128017   -0.465011
C     -1.045384   -0.145766   -0.556678
N      2.804404    1.452823   -1.032516
O      0.291751    0.019996   -0.835422
H     -0.121574    2.333884    0.049159
H     -1.660670    2.781260    0.885927
H     -1.588487    2.953179   -0.876305
H     -1.636331   -3.388210   -1.297341
H     -0.354829   -2.398027   -2.017088
H     -0.263521   -2.955962   -0.255001
H      3.310603    0.431105    1.612768
H      4.673535    0.398534    0.378534
H      3.848084   -1.099713    0.868953
H     -4.848913   -0.487759    0.261921
H     -3.729663    1.698903    0.435071
H     -3.490727   -2.443004   -0.442709
H      1.201771    0.565508    0.987912
H      1.301835   -1.193820    0.440448
H      2.953980   -0.660383   -1.204780
H      3.834119    1.676181   -1.040183
H      2.372924    2.111154   -0.332699
