50

C     -2.650749   -2.837843    1.222711
C     -3.733843   -0.614560    1.118532
C      5.439694    0.037208    0.995356
C     -2.596145    0.389696   -1.699084
C     -1.562655    3.636229    0.832881
C     -0.216813    3.910065    0.908770
C     -1.954896    2.437787    0.294261
C      1.513232   -0.094231   -1.302389
C      2.538410    1.959615   -0.216615
C      1.846100   -1.254783    0.930011
C     -2.931553   -1.601956    0.353017
C      4.210498   -0.807078    0.735444
C      1.414576    1.146045   -0.517097
C      1.518210   -1.342231   -0.505247
C      0.714246    2.991025    0.444343
C     -1.024235    1.469186   -0.184898
C      0.285219    1.773466   -0.103275
C     -1.502763   -1.054940    0.020636
C     -0.825316   -2.119971   -0.698620
N      2.053242    3.055421    0.360892
N      0.405983   -2.182899   -0.878216
N     -1.648511    0.243189   -0.581674
O      4.399237   -1.843058    0.080886
O     -1.603040   -3.189692   -1.253947
O      2.979941   -0.451664    1.190691
H     -3.334106   -3.672257    0.962940
H     -1.624339   -3.220690    1.081615
H     -2.752045   -2.537423    2.295345
H     -3.137536    0.153864    1.628987
H     -4.405195   -1.136208    1.858398
H     -4.457220   -0.136093    0.395153
H      6.112827   -0.492603    1.701046
H      5.096784    1.011412    1.375093
H      5.904076    0.174464   -0.012917
H     -2.087871    0.376155   -2.687555
H     -3.318642   -0.446138   -1.738845
H     -3.135337    1.376386   -1.650382
H     -2.248572    4.380395    1.202253
H      0.145625    4.843742    1.330229
H     -3.027241    2.280302    0.217970
H      2.393257   -0.044541   -2.026986
H      0.651344   -0.145352   -2.057112
H      3.568187    1.737542   -0.418037
H      2.137007   -2.286506    1.293294
H      1.054553   -0.943924    1.623498
H     -3.403923   -2.008995   -0.557254
H      2.407351   -1.951156   -0.951834
H     -1.103578   -0.982812    1.096826
H      2.681785    3.838364    0.689942
H     -1.185259   -3.821951   -1.917743
