43

C     -2.763086    0.975542    0.559620
C     -2.364145    0.957711   -1.813682
C     -0.285078   -0.091553    2.013979
C      2.485141   -0.449433   -1.736180
C     -1.769938   -2.072723    0.356378
C     -2.360291   -1.167729   -0.668286
C     -0.299016   -1.955320    0.489710
C      1.658601    1.627767   -0.691102
C      0.237354    1.361946   -1.068374
C      1.651332   -0.516684    0.614802
C      2.280318   -0.119226    1.912425
C     -1.956277    0.279895   -0.487601
C      0.172226   -0.495714    0.623552
C      2.335431    0.320020   -0.434193
C     -0.488107    0.388612   -0.377172
O      3.002551   -0.845386    2.612871
O      2.023553    1.170018    2.351854
O      3.640348    0.609158   -0.005592
O      0.084277    0.045669   -1.731394
H     -3.691294    1.466886    0.133926
H     -2.256441    1.768852    1.105854
H     -3.206300    0.175175    1.222854
H     -2.513385    2.046974   -1.655264
H     -3.274959    0.476128   -2.231085
H     -1.546411    0.866051   -2.561289
H     -0.285047    0.980289    2.197628
H      0.476960   -0.539901    2.719698
H     -1.223610   -0.603535    2.302791
H      2.238860    0.167644   -2.623201
H      3.547185   -0.783637   -1.905676
H      1.906251   -1.413262   -1.713108
H     -1.973093   -3.126968    0.001836
H     -2.331186   -1.996428    1.312547
H     -2.019155   -1.460035   -1.689987
H     -3.453665   -1.239901   -0.668226
H      0.008799   -2.443047    1.455920
H      0.243026   -2.448189   -0.314291
H      1.747212    2.346897    0.128486
H      2.156972    2.081573   -1.585794
H     -0.266116    2.182203   -1.593728
H      2.064785   -1.558567    0.432712
H      2.467993    1.494526    3.203914
H      3.897423    1.537698   -0.198131
