45

C      7.748276   -0.484709   -0.003933
C     -7.673973   -0.223686    0.086535
C      6.937230    0.603130   -0.236726
C      7.195516   -1.687738    0.339910
C     -7.018789   -0.576304    1.254609
C     -6.931612    0.302187   -0.928541
C      0.742570   -0.145748   -1.134348
C      5.575261    0.449516   -0.115852
C      5.821050   -1.824453    0.457160
C     -5.637979   -0.387264    1.360641
C     -5.572364    0.484250   -0.813998
C     -0.749952   -0.207900   -1.034676
C      1.354216    0.062781    0.236062
C      4.986934   -0.754239    0.230299
C     -4.889750    0.142841    0.337346
C     -1.365966    1.046617   -0.456842
C      3.551133   -0.893240    0.351890
C     -3.455351    0.315326    0.507885
C     -1.060867    2.237540   -1.272386
N      2.801012    0.120264    0.134840
N     -2.803223    0.816995   -0.484194
O      3.000847   -2.106534    0.698124
O     -2.825559   -0.040597    1.673618
O     -1.988938    2.844553   -1.889521
O      0.211656    2.721722   -1.389510
H      8.817000   -0.317937   -0.110731
H     -8.743265   -0.385405    0.043158
H      7.312199    1.568721   -0.508616
H      7.842196   -2.515734    0.515349
H     -7.599598   -0.994647    2.066257
H     -7.410848    0.585073   -1.846010
H      1.062114   -1.173434   -1.464062
H      1.094645    0.629172   -1.814943
H      4.925203    1.287281   -0.293612
H      5.371939   -2.758225    0.725245
H     -5.159084   -0.676613    2.294287
H     -4.974879    0.903395   -1.620619
H     -1.219345   -0.401609   -2.022875
H     -0.992638   -1.097569   -0.405218
H      1.058081   -0.744202    0.928348
H      1.000898    1.011367    0.701989
H     -1.012710    1.249848    0.569434
H      2.094309   -2.391706    0.326230
H     -1.854031   -0.248760    1.669008
H      0.436436    3.655674   -1.716867
