50

C     -1.842810    3.099104   -0.600455
C     -3.274368    1.155642   -0.643866
C      5.577755    1.351896    1.214914
C     -1.783675   -0.360164    2.541737
C     -3.186142   -3.073873   -0.431151
C     -2.259863   -3.720965   -1.200097
C     -2.830957   -1.968701    0.290823
C      1.596844   -0.888119    0.009247
C      1.148994   -2.869214   -1.487487
C      2.829316    0.778721   -1.350940
C     -1.789479    1.571693   -0.624597
C      4.264376    1.580847    0.493426
C      0.705446   -1.865772   -0.627859
C      1.517155    0.441267   -0.670399
C     -0.957342   -3.201478   -1.202287
C     -1.524352   -1.409438    0.308782
C     -0.621779   -2.073084   -0.455892
C     -1.177936    1.150588    0.713886
C      0.148123    1.690238    0.927883
N      0.140316   -3.665788   -1.826150
N      1.240708    1.390800    0.352597
N     -1.455644   -0.225627    1.082423
O      3.488217    2.478147    0.842797
O      0.335502    2.709918    1.911527
O      3.956759    0.773381   -0.552199
H     -2.412284    3.458634    0.280064
H     -2.426574    3.478408   -1.490992
H     -0.845742    3.547575   -0.704555
H     -3.636181    0.914657    0.366401
H     -3.440172    0.314043   -1.377142
H     -3.921791    1.973287   -1.027047
H      5.463568    1.815850    2.202625
H      6.407512    1.783095    0.613827
H      5.740576    0.262212    1.250829
H     -0.951250   -0.744656    3.114731
H     -2.604691   -1.129043    2.643265
H     -2.104126    0.611480    2.953426
H     -4.223246   -3.450136   -0.397428
H     -2.497824   -4.602438   -1.793491
H     -3.643552   -1.556675    0.903571
H      2.668335   -1.189328    0.015753
H      1.371259   -0.787598    1.119502
H      2.160668   -3.045675   -1.874852
H      3.035708    0.034579   -2.182969
H      2.702657    1.754258   -1.910639
H     -1.360230    1.143878   -1.500035
H      0.785411    0.371018   -1.494225
H     -1.878401    1.803748    1.391757
H      0.132248   -4.507401   -2.451777
H      1.232956    2.896206    2.332735
