31

C      0.506180   -2.439921   -1.262916
C      3.563078    1.765155    0.193856
C     -2.406851    1.841889    0.260876
C     -0.916984    1.878805    0.546073
C     -2.527065    0.450538   -0.376492
C     -1.421413   -1.630034    0.131347
C     -0.580437    0.449438    0.752346
C      0.330237   -0.130993   -0.300842
C      1.746617    0.183259   -0.071962
C      0.092694   -1.613095   -0.094344
N     -1.788540   -0.331313    0.587233
O      2.573593   -0.737149    0.087534
O      0.768315   -1.962984    1.082227
O      2.196085    1.482660   -0.027466
H      1.290031   -3.165901   -0.908788
H      0.878575   -1.846237   -2.113812
H     -0.346634   -3.076510   -1.606338
H      4.103054    1.981506   -0.736690
H      3.640327    2.645421    0.843119
H      4.030674    0.876190    0.692458
H     -3.008011    1.822411    1.196793
H     -2.724277    2.628275   -0.430067
H     -0.754202    2.452152    1.502245
H     -0.376617    2.380880   -0.269286
H     -3.574598    0.144776   -0.479806
H     -2.038317    0.519321   -1.353458
H     -1.604356   -2.367805    0.942108
H     -1.965257   -1.944195   -0.770817
H     -0.097950    0.233689    1.741051
H      0.068132    0.201091   -1.322865
H      0.343919   -2.691320    1.566681
