60

C      4.237984    1.066399   -1.555044
C      2.965046    3.096464   -2.009282
C     -3.365364    0.035395   -0.694183
C     -0.096129   -3.541122    3.072653
C      1.894712   -0.996229   -0.499303
C     -0.473739   -0.102758    4.236769
C     -4.701375    1.772558    1.827311
C     -0.439300    1.917421    0.239393
C     -2.827346   -1.340067    1.584146
C      0.798328    1.097901   -3.105858
C     -1.869924    1.930504   -0.103097
C     -2.194951   -2.255065    2.602556
C      0.378739    0.118039   -2.019330
C     -2.001113   -0.128419    1.319798
C      0.242839    0.618460    0.447775
C      2.309018    1.066199   -3.154081
C     -0.617894   -0.516275    0.853665
C     -0.039382   -1.330531    1.997330
C      2.829090    1.572822   -1.828825
C     -2.715690    0.828163    0.421198
C     -0.816399   -2.635052    2.121105
C      1.165067    0.314921   -0.750065
Cl     2.795920    2.194892   -4.467446
N     -0.274060   -0.644064    3.229444
N     -3.805751    1.348256    1.191641
O     -0.856705   -3.226119    0.882792
O      2.007215    1.388518   -0.773556
H      4.347072    0.704550   -0.500318
H      5.006083    1.858349   -1.683555
H      4.520288    0.246668   -2.251466
H      1.950365    3.440825   -2.344718
H      3.132794    3.502025   -0.989718
H      3.750609    3.329659   -2.725794
H     -4.418485   -0.208169   -0.472749
H     -2.750124   -0.849413   -0.968785
H     -3.301199    0.701958   -1.606818
H      0.584799   -2.968358    3.744959
H      0.582688   -4.254681    2.520095
H     -0.803982   -4.084584    3.739033
H      2.655990   -0.916024    0.290987
H      1.172301   -1.802506   -0.406023
H      2.470592   -1.224573   -1.440530
H     -0.252213    2.619332    1.108615
H      0.099755    2.455784   -0.598715
H     -3.786117   -0.994417    2.035334
H     -3.010356   -1.969702    0.683431
H      0.408169    2.108128   -2.946060
H      0.462081    0.665711   -4.088382
H     -2.307665    2.904208    0.278210
H     -2.076037    2.010495   -1.213001
H     -2.114284   -1.827669    3.613344
H     -2.786976   -3.192108    2.675003
H     -0.723048    0.150168   -1.857102
H      0.539404   -0.902577   -2.480298
H     -1.862821    0.389472    2.294026
H      0.989726    0.774588    1.286721
H      2.672696    0.081722   -3.439617
H     -0.730784   -1.249431   -0.001936
H      1.035138   -1.484126    1.953830
H      0.014704   -3.666512    0.724491
