39

C      6.157139    2.053629   -0.582296
C     -5.365858    1.894064   -0.369871
C      4.087978    0.524312    0.475470
C      2.537944    1.465576   -1.075474
C     -2.943220    0.282928   -0.019528
C     -3.163659   -2.442298   -0.100199
C      0.444944   -2.056062   -0.013966
C      3.824398    1.388475   -0.578883
C     -1.807332   -0.456727    0.145036
C      0.540261   -0.819012    0.849925
C     -4.275821   -1.635295   -0.259920
C      3.072824   -0.241233    1.011470
C     -1.921874   -1.828151    0.103871
C     -4.190228   -0.259450   -0.223206
C      1.500279    0.711604   -0.559592
C      1.814784   -0.130343    0.485933
C     -0.486927    0.176119    0.362006
O     -5.511741   -2.216572   -0.462513
O      3.339527   -1.104103    2.065354
O      4.858826    2.161902   -1.117649
O     -5.326292    0.500168   -0.387473
O     -0.809898   -2.647762    0.263322
O      0.130584    0.590648   -0.859956
H      6.445514    0.963871   -0.645166
H      6.849805    2.669435   -1.217827
H      6.218163    2.370337    0.479695
H     -4.428053    2.249520   -0.889468
H     -5.368042    2.338309    0.643542
H     -6.196830    2.324489   -0.945647
H      5.104722    0.484334    0.844449
H      2.365795    2.141198   -1.888977
H     -2.826966    1.369678    0.017095
H     -3.262013   -3.518745   -0.133818
H      1.287336   -2.747090    0.132875
H      0.415248   -1.694898   -1.076086
H      0.463730   -1.031640    1.921216
H     -0.551315    1.052311    1.041132
H     -5.627228   -3.213174   -0.497444
H      2.603496   -1.670351    2.466562
