91

C      9.362521    1.551462    0.672203
C      9.084023   -0.932285    0.770695
C     -8.162984   -1.735338    0.277313
C     -8.856824    0.603446    0.331465
C      1.572672   -0.949714    1.977026
C      4.255142    0.871031    1.100342
C     -1.536830    0.654134   -2.388574
C     -5.890331    1.690489   -1.925436
C      0.009158    0.874750    0.214629
C     -1.377202    1.511124    0.452376
C     -6.091854    1.063293    1.807905
C      3.302670   -1.727907   -0.649527
C      7.003577    0.354690   -0.859459
C     -4.229212   -0.584391   -1.862272
C      1.999859   -1.090880   -0.539452
C     -6.038223    1.792057    0.501168
C      5.495318    0.315093   -1.002113
C     -2.888984   -1.246580   -1.710658
C     -6.881206   -0.190665    1.649191
C      4.434752   -1.510965    0.243224
C      7.094086    0.594314    0.653494
C     -0.210555   -0.607335    0.357847
C     -2.370104    0.508931   -0.051111
C     -4.514684    0.187259   -0.586747
C      8.499547    0.386590    1.148730
C     -7.636007   -0.294676    0.361782
C      1.117343   -1.323263    0.613160
C      5.035482   -0.150244    0.350352
C     -1.821644   -0.255349   -1.227298
C     -5.895901    0.848772   -0.661835
Br    -8.168300   -0.267058    3.103068
O      5.509946   -2.292147   -0.356691
O      8.464921    0.472862    2.539463
O      0.741003   -2.709930    0.605029
O     -3.539031    1.177624   -0.481983
O      6.215994   -0.338971    1.134313
O     -0.730883   -1.040397   -0.862532
O     -6.891094   -0.078813   -0.766163
H      9.147911    1.693454   -0.407312
H      9.043023    2.483086    1.182933
H     10.437968    1.342056    0.842654
H      9.371076   -1.005267   -0.297955
H      8.403190   -1.724499    1.099146
H     10.027756   -1.061804    1.347359
H     -9.057220   -1.786217   -0.362354
H     -8.446002   -2.081065    1.287646
H     -7.345690   -2.391816   -0.091850
H     -8.794237    1.342868   -0.509074
H     -9.796625    0.045425    0.164544
H     -8.943091    1.090863    1.319173
H      1.717778    0.136199    2.127450
H      2.411920   -1.563913    2.383454
H      0.743000   -1.182907    2.739051
H      4.085945    0.439399    2.133294
H      4.890652    1.782402    1.341587
H      3.368055    1.273692    0.629544
H     -2.301153    0.555660   -3.211116
H     -0.563710    0.374502   -2.882828
H     -1.563381    1.735362   -2.118881
H     -6.028152    1.081947   -2.832326
H     -4.939551    2.252489   -2.048327
H     -6.752209    2.384118   -1.867752
H      0.354113    1.145457   -0.806871
H      0.686479    1.333003    0.922624
H     -1.433766    2.477322   -0.054112
H     -1.520579    1.695302    1.542314
H     -6.465847    1.737824    2.603676
H     -5.029222    0.800082    2.075923
H      3.651256   -1.574847   -1.726711
H      3.109881   -2.858092   -0.663434
H      7.443313   -0.628905   -1.055193
H      7.456020    1.181632   -1.427028
H     -4.225235    0.094078   -2.717580
H     -4.971647   -1.397485   -2.020547
H      1.994049    0.009118   -0.759095
H      1.396863   -1.481641   -1.447804
H     -5.104002    2.423063    0.512799
H     -6.867880    2.507525    0.365314
H      5.269741   -0.352433   -1.831187
H      5.141875    1.365003   -1.192509
H     -2.504777   -1.667724   -2.663722
H     -2.958544   -2.081712   -0.960903
H     -6.256839   -1.111759    1.750365
H      4.398709   -1.942329    1.254813
H      6.841494    1.641242    0.809063
H     -0.854598   -0.832011    1.216538
H     -2.726105   -0.201996    0.724752
H     -4.458251   -0.515274    0.278412
H      5.223135   -3.245908   -0.340835
H      7.641923    0.939371    2.867535
H      0.185028   -2.804954   -0.198769
