89

C     -3.875958   -3.731807    2.064123
C      4.934718    2.033876   -3.420063
C     -5.310384    4.810520   -1.399292
C      5.422241    1.108485    3.580830
C      1.532772   -4.923209   -1.123373
C      3.291073   -2.864812    2.895278
C      1.211790    3.874721   -1.313524
C      1.754337    3.298005    0.918945
C     -5.104978    1.096169    0.342519
C     -0.160985    3.915926   -0.924079
C      0.376761    3.351384    1.257090
C     -5.183323    2.329092   -0.243961
C     -3.766793   -3.479525   -1.361166
C      2.069658    0.222444   -1.978618
C     -4.636680   -3.889110   -0.228001
C      3.296907    0.461254   -2.865369
C      3.640381    3.445110   -0.719793
C     -4.233631   -0.764787    1.533306
C     -2.901615    1.458081    1.213702
C      4.145386    1.034928    0.988883
C     -1.183365   -1.706619    0.744964
C      2.163506    3.560063   -0.370426
C     -3.987548    0.631081    1.073477
C     -0.581437    3.658215    0.335130
C     -2.435009   -3.035235   -0.831956
C      2.518321    0.012207   -0.551363
C     -2.399683   -2.099818    0.264005
C      3.507753    0.978433   -0.261420
C      3.963711    2.015764   -1.203457
C     -3.807640   -1.804302    0.591005
C     -4.077196    3.122346   -0.080875
C     -2.947086    2.708777    0.631512
C      3.829448    0.157438    1.967144
C     -0.030978   -2.222876    0.156636
C     -1.330901   -3.552916   -1.420008
C      2.198197   -0.861109    0.414455
C     -0.131440   -3.135621   -0.911832
C      2.867119   -0.767811    1.660604
N     -4.405978   -3.100606    0.918470
N      3.765612    1.826538   -2.589674
O     -1.389997   -4.459460   -2.482175
O     -4.195220    4.381040   -0.694534
O      4.443637    0.180311    3.233464
O      0.972567   -3.715233   -1.564505
O      2.593057   -1.651719    2.730398
O     -1.976448    3.709863    0.631941
O      1.287898   -1.938009    0.507102
H     -3.678879   -4.805485    1.836447
H     -3.043945   -3.219452    2.560916
H     -4.694183   -3.765280    2.843776
H      5.174246    1.180682   -4.059879
H      5.806417    2.137914   -2.711631
H      4.859733    2.957709   -4.029052
H     -6.192056    4.796117   -0.700379
H     -5.176451    5.900254   -1.633275
H     -5.577515    4.223777   -2.294258
H      5.414020    1.265099    4.695883
H      6.432811    0.708139    3.348405
H      5.318014    2.106422    3.147225
H      2.094422   -4.822043   -0.166104
H      0.778263   -5.719438   -1.078674
H      2.273768   -5.250766   -1.901358
H      4.209726   -2.655273    3.489978
H      3.487308   -3.290672    1.898856
H      2.627191   -3.529030    3.522729
H      1.293837    4.108960   -2.416851
H      2.323689    3.018593    1.856978
H     -5.998243    0.464047    0.200767
H     -0.765789    4.203652   -1.835334
H      0.234761    3.120362    2.348249
H     -6.058280    2.657151   -0.798994
H     -3.609713   -4.394351   -1.986894
H     -4.145434   -2.654709   -1.994553
H      1.506213   -0.521142   -2.476122
H      1.497219    1.192444   -2.052638
H     -5.702714   -3.706027   -0.558530
H     -4.574811   -4.985999   -0.036062
H      4.082018   -0.284475   -2.714753
H      2.947964    0.410703   -3.906929
H      3.992405    4.174125   -1.517283
H      4.379239    3.687155    0.036102
H     -3.916411   -1.056268    2.546550
H     -5.380437   -0.941442    1.638729
H     -1.981588    1.145197    1.809686
H      4.912889    1.795646    1.189158
H     -1.065042   -0.997199    1.631701
H      5.124285    2.027052   -1.108175
H     -4.376763   -1.541153   -0.384821
H     -0.564759   -4.818485   -2.889546
