28

C     -2.557169   -0.869097   -0.290832
C     -1.285828   -1.603184    0.170971
C      0.975110   -1.383722   -0.670811
C     -2.043117    0.574608   -0.191590
C      2.064998   -0.569945   -0.058580
C     -0.564012    0.476162   -0.563968
C      1.731012    0.858081    0.177853
C      0.306863    1.141338    0.486348
N     -0.321163   -0.900122   -0.566875
O     -2.210395    0.986221    1.126526
O      2.495025   -1.163034    1.140084
O      2.509089    1.300091    1.268309
O      0.092401    2.529367    0.317174
H     -2.688916   -1.148417   -1.346503
H     -3.403363   -1.056815    0.359580
H     -1.247000   -1.403373    1.281581
H     -1.327066   -2.667583   -0.039467
H      1.026075   -2.419424   -0.222077
H      1.206740   -1.563390   -1.762883
H     -2.590652    1.188531   -0.919184
H      2.965637   -0.592228   -0.740294
H     -0.372546    0.896089   -1.569002
H      2.073597    1.489764   -0.685619
H      0.003774    0.802641    1.477616
H     -3.016920    1.540862    1.223206
H      3.432360   -1.421360    1.128968
H      2.034902    1.907049    1.854454
H      0.710564    3.070889    0.828133
