54

C      5.256227    0.558459   -2.761820
C     -3.630569    2.376088    3.636864
C     -5.080379    0.303899   -3.124308
C      3.927832   -1.788366    1.388140
C      5.267051   -1.530849    1.538374
C      1.749858   -1.716334    0.134105
C      3.911459   -0.760529   -0.733115
C     -2.828660    1.355388    1.176110
C     -3.284388    0.676057   -1.029516
C     -0.932962   -1.922974   -0.448449
C      1.160331    0.711812   -0.046948
C      3.201162   -1.420393    0.262837
C     -2.373136    0.845858   -0.020719
C      0.900881   -0.595212    0.681412
C     -0.557267   -0.792416    0.458196
C      5.947265   -0.885933    0.557702
C      5.256346   -0.500093   -0.586058
C     -4.146428    1.698509    1.401868
C     -4.635309    1.004538   -0.864626
C     -5.032549    1.510768    0.356176
C     -0.969550    0.490463   -0.231508
O     -0.516850   -3.166249   -0.030537
O      7.318987   -0.607736    0.681681
O     -6.378104    1.851960    0.560627
O      5.935229    0.155585   -1.589264
O     -4.599224    2.213945    2.616919
O     -5.553467    0.829248   -1.893012
O     -0.049860    1.396847    0.215546
H      4.427580    1.275947   -2.492552
H      4.867701   -0.298980   -3.318693
H      6.010694    1.133850   -3.364808
H     -3.160493    1.392236    3.920955
H     -2.767013    3.009927    3.288748
H     -4.054167    2.799930    4.558086
H     -5.846043    0.410370   -3.928852
H     -4.184949    0.863218   -3.494524
H     -4.835060   -0.766042   -3.068677
H      3.432714   -2.306841    2.202760
H      5.806008   -1.832002    2.431228
H      1.456550   -2.030593   -0.880399
H      1.575228   -2.593115    0.807895
H      3.345449   -0.472179   -1.613091
H     -2.135065    1.497862    1.981262
H     -2.950163    0.276961   -1.979930
H     -0.664831   -1.696585   -1.497581
H     -2.063347   -1.953642   -0.444568
H      2.026746    1.250533    0.344456
H      1.195594    0.498192   -1.129037
H      1.190443   -0.439523    1.740633
H     -1.040917   -0.891131    1.458836
H     -0.769173    0.327110   -1.326334
H     -0.912300   -3.345542    0.853942
H      7.825018   -0.128141   -0.047891
H     -7.040130    1.725836   -0.178535
