54

C     -4.486137    0.875819   -2.629419
C      4.156455    4.462680    0.484866
C      4.312166   -2.580561   -1.336904
C     -3.896149   -1.416443    1.694800
C     -5.023159   -1.974263    1.142167
C     -1.986909    0.186428    1.737704
C     -3.643192   -0.018782   -0.167651
C      2.810847    1.934628    0.187189
C      2.869019   -0.334128   -0.401498
C     -0.527972   -1.148941   -0.762685
C      0.316341    0.252632    2.549606
C     -3.152618   -0.405251    1.054672
C      2.136424    0.716118    0.050258
C     -0.734425   -0.582095    1.719768
C      0.097409   -0.685993    0.490270
C     -5.490019   -1.571033   -0.077567
C     -4.777593   -0.572798   -0.736057
C      4.143239    2.079559   -0.114746
C      4.213127   -0.213711   -0.712722
C      4.848609    0.988098   -0.570203
C      0.724282    0.673840    0.406618
O     -1.080305   -2.420028   -0.606231
O     -6.616458   -2.086341   -0.696476
O      6.204677    1.174499   -0.867766
O     -5.206955   -0.136613   -1.959633
O      4.780668    3.293637    0.030451
O      4.929097   -1.315375   -1.173438
O      0.588292    1.291039    1.659197
H     -3.502703    0.537052   -2.987025
H     -4.322234    1.768470   -1.991361
H     -5.078833    1.137534   -3.543657
H      4.885204    5.195645    0.891793
H      3.481980    4.930809   -0.260911
H      3.507057    4.187797    1.359926
H      3.925928   -2.965107   -0.366727
H      3.470125   -2.515731   -2.086123
H      5.068739   -3.277983   -1.759028
H     -3.508237   -1.727342    2.670799
H     -5.567009   -2.753365    1.672129
H     -1.835779    1.265571    1.389419
H     -2.249073    0.371258    2.835173
H     -3.088899    0.776220   -0.685823
H      2.256425    2.798596    0.546619
H      2.446258   -1.304175   -0.534810
H      0.329931   -1.329646   -1.510860
H     -1.215392   -0.512833   -1.283162
H      1.173035   -0.415284    2.725279
H     -0.136306    0.544232    3.486612
H     -0.833490   -1.559992    2.253413
H      0.957410   -1.385818    0.789659
H      0.080944    1.280533   -0.294452
H     -0.330586   -3.048014   -0.400937
H     -7.138891   -2.823517   -0.205413
H      6.715636    0.358466   -1.204127
