86

C      3.468510    2.747586    0.618250
C     -5.026201   -3.328155   -2.158230
C      5.480386   -2.415412    2.780349
C     -4.647643   -1.278532    4.473529
C     -2.597615    4.743335   -0.505245
C     -1.078621   -3.300969    1.425416
C     -1.028864   -4.192410   -0.758758
C      4.760945    0.093399   -0.364012
C      0.324635   -3.104796    1.403851
C      0.375256   -3.982645   -0.748607
C      5.012114   -0.733416    0.691201
C      2.791714    4.742378   -1.586522
C     -2.328916   -0.846428   -1.555335
C      4.102666    4.262358   -1.026148
C     -3.670051   -1.392174   -2.101484
C     -3.266434   -4.009239    0.331557
C      3.743272    1.002344   -2.293595
C      2.932459   -1.234197   -1.193199
C     -3.801933   -1.399260    1.825475
C      0.825299    1.621663   -0.680619
C     -1.761331   -3.841504    0.349888
C      3.735462   -0.119899   -1.322799
C      1.058995   -3.444107    0.309806
C      1.664686    3.858609   -1.095136
C     -2.606136   -0.504579   -0.124086
C      1.836792    2.425702   -1.149921
C     -3.385511   -1.472633    0.495701
C     -3.857201   -2.701454   -0.145125
C      3.166918    2.221595   -1.728478
C      4.185171   -1.835815    0.787223
C      3.168642   -2.077745   -0.133762
C     -3.457714   -0.345154    2.613981
C     -0.322048    2.220469   -0.172028
C      0.552738    4.472937   -0.605369
C     -2.690323    0.602263    2.000208
C     -2.235049    0.583373    0.652701
C     -0.422422    3.643294   -0.152291
N      4.052855    2.841715   -0.705085
N     -3.875857   -2.720121   -1.575135
O      0.430008    5.870021   -0.573987
O     -2.359139    1.684387    2.864449
O      4.457127   -2.687809    1.884667
O     -3.853553   -0.234621    3.944485
O     -1.562003    4.317309    0.348965
O      2.491852   -3.253942    0.217048
O     -1.474345    1.702718    0.365046
H      2.788077    1.908506    0.757499
H      3.002398    3.693933    0.951965
H      4.347971    2.557874    1.302415
H     -5.202689   -4.300219   -1.638279
H     -5.958558   -2.740447   -2.028499
H     -4.822360   -3.586730   -3.213850
H      6.445766   -2.372189    2.230210
H      5.267535   -1.445928    3.292743
H      5.553856   -3.242451    3.501699
H     -5.515767   -1.540888    3.860979
H     -4.044365   -2.201819    4.622569
H     -5.010335   -0.955451    5.471266
H     -3.059961    5.689750   -0.231159
H     -3.305394    3.895670   -0.624867
H     -2.129439    4.874525   -1.518331
H     -1.443443   -2.934451    2.427810
H     -1.306979   -4.639388   -1.762799
H      5.436951    0.965839   -0.438692
H      0.696047   -2.668945    2.378303
H      0.798420   -4.338505   -1.728963
H      5.804201   -0.547842    1.411882
H      2.745232    4.847032   -2.659847
H      2.601286    5.752483   -1.145905
H     -1.513973   -1.573200   -1.662844
H     -2.130169   -0.072975   -2.279532
H      4.897231    4.492516   -1.747747
H      4.320157    4.793233   -0.083978
H     -4.443797   -0.733719   -1.670922
H     -3.709478   -1.413440   -3.181701
H     -3.717870   -4.338726    1.306183
H     -3.715163   -4.767122   -0.303014
H      4.882166    1.215936   -2.526868
H      3.414627    0.893021   -3.316825
H      2.115780   -1.451946   -1.957297
H     -4.425617   -2.201743    2.272268
H      0.899579    0.491479   -0.694300
H     -4.974531   -2.850764    0.129000
H      3.323273    2.973352   -2.614861
H     -0.418291    6.259149   -0.200656
H     -1.801966    2.414150    2.482430
