46

C     -5.480419    2.113055   -0.752578
C     -3.928496   -2.741119    1.447157
C      3.834390   -3.563072    1.470739
C     -0.408290    2.165892   -0.982324
C     -2.721858    1.483537   -0.556149
C     -1.968009   -0.937075    0.542205
C      3.096505   -0.958018    0.386053
C      3.162434    2.266110   -1.490736
C     -1.366260    1.165080   -0.455511
C     -1.019816   -0.064611    0.104418
C      2.683151    0.254679   -0.115694
C      0.996030    1.862029   -0.703291
C      3.693932    1.220570   -0.569094
C     -3.667922    0.597295   -0.111682
C     -3.324104   -0.612515    0.438161
C      2.156450   -1.887041    0.815605
C      1.313066    0.551435   -0.192627
C      0.401026   -0.372176    0.232153
C      0.796329   -1.592509    0.738311
N      1.803579    2.061285   -1.923438
O      4.785138    0.607572   -1.191781
O     -0.042750   -2.568077    1.183632
O     -5.041589    0.880598   -0.195446
O     -4.314408   -1.500605    0.884515
O      2.521656   -3.117415    1.327306
H     -6.605865    2.087542   -0.663927
H     -5.049569    2.977133   -0.212686
H     -5.173343    2.139019   -1.818365
H     -3.253377   -2.487137    2.313045
H     -3.410952   -3.392553    0.743862
H     -4.826100   -3.208323    1.923183
H      4.434678   -3.495459    0.548993
H      3.805023   -4.617852    1.821290
H      4.301135   -2.970366    2.305135
H     -0.674899    3.123804   -0.436639
H     -0.627330    2.420343   -2.048548
H     -3.027062    2.438978   -0.989153
H     -1.758727   -1.876396    0.973780
H      4.147127   -1.227167    0.462952
H      3.211900    3.289082   -1.014839
H      3.792480    2.374690   -2.417044
H      1.460768    2.614946    0.017422
H      4.102421    1.730077    0.349074
H      1.497626    2.901460   -2.434045
H      5.476597    1.312969   -1.292202
H      0.217705   -3.449693    1.549968
