46

C      5.146144   -2.859225   -0.393676
C      4.246401    2.681900   -0.071386
C     -3.484671    4.119771    0.280357
C      0.197899   -2.400924   -0.194838
C      2.562513   -1.860199   -0.261443
C      2.096668    0.846602   -0.103617
C     -2.972128    1.338948    0.057175
C     -3.378671   -2.208956    0.724125
C      1.242476   -1.397394   -0.196180
C      1.033067   -0.017125   -0.117118
C     -2.692896    0.003102   -0.051284
C     -1.179498   -1.884259   -0.257423
C     -3.741348   -1.024676   -0.103182
C      3.626197   -0.986588   -0.247711
C      3.421985    0.371049   -0.169257
C     -1.925588    2.229225    0.097968
C     -1.366334   -0.466034   -0.120770
C     -0.363917    0.455899   -0.075672
C     -0.590190    1.808894    0.032387
N     -2.042855   -2.677186    0.612651
O     -4.923010   -0.477244    0.412151
O      0.363903    2.790478    0.082738
O      4.938961   -1.461830   -0.313307
O      4.421747    1.300076   -0.150250
O     -2.196804    3.588834    0.207600
H      4.577735   -3.295121    0.478672
H      4.650638   -3.239854   -1.319007
H      6.205874   -3.127653   -0.339293
H      3.512973    2.978672   -0.869867
H      5.232332    3.159311   -0.255299
H      3.873621    2.966205    0.945817
H     -3.411727    5.116167    0.774408
H     -4.181822    3.523136    0.902265
H     -3.972007    4.237035   -0.707922
H      0.320170   -2.991632    0.759634
H      0.411031   -3.112492   -1.042792
H      2.743664   -2.905093   -0.322735
H      1.985916    1.900556   -0.045965
H     -4.004905    1.650687    0.107201
H     -3.694576   -2.049410    1.795078
H     -4.050313   -3.054235    0.385742
H     -1.568893   -2.146486   -1.307837
H     -3.943722   -1.280868   -1.163557
H     -1.613062   -2.704586    1.564580
H     -5.630726   -1.193909    0.462842
H      0.117749    3.756432    0.162274
