41

C      4.763331    1.788318    0.122137
C      0.431760   -3.008234    0.345899
C     -2.107227    1.943979    1.155738
C     -4.415418    1.540964    0.474700
C     -1.290030   -0.594774   -0.040348
C     -0.748794   -1.426036   -1.186877
C      3.300963   -0.086244    0.859354
C      2.297895   -0.996377    0.602037
C     -2.606696    0.054772   -0.406293
C      3.056340    0.742674   -1.338090
C      3.689695    0.792776   -0.109874
C      0.556484   -2.077422   -0.848029
C      1.639618   -1.077829   -0.614162
C      2.047340   -0.182210   -1.577682
C     -3.092775    0.867667    0.778120
O      1.473859   -0.165653   -2.816520
O     -3.212833   -0.018886    1.863916
H      4.313001    2.811134    0.111548
H      5.517130    1.708039   -0.665764
H      5.180775    1.661884    1.145737
H      1.443975   -3.445685    0.504338
H      0.131447   -2.504779    1.261699
H     -0.221528   -3.839778    0.033345
H     -1.507347    1.688561    2.050558
H     -1.470961    2.243492    0.283763
H     -2.652149    2.895210    1.432335
H     -5.121236    0.874741   -0.046123
H     -4.165525    2.451839   -0.124528
H     -4.823128    1.881249    1.457877
H     -1.442279   -1.183424    0.864827
H     -0.563969    0.259064    0.098958
H     -1.537355   -2.178664   -1.414502
H     -0.625030   -0.824216   -2.100222
H      3.806104   -0.040587    1.826281
H      1.997374   -1.685472    1.372427
H     -3.334877   -0.735899   -0.636258
H     -2.512704    0.715080   -1.281470
H      3.381331    1.446204   -2.085303
H      0.864447   -2.701653   -1.707621
H      1.699313    0.439245   -3.569931
H     -4.140322   -0.033070    2.155533
