33

C      3.948582    0.662815    1.114964
C     -3.783248    0.859341    1.256706
C      3.711493   -0.713237    0.538807
C      2.206567   -0.891502    0.281540
C      1.820429    0.175360   -0.684849
C      0.392364    0.203539   -1.096539
C     -2.778455   -0.128472    0.714153
C     -0.592307    0.402307    0.001170
C     -2.022743    0.426746   -0.473164
C     -2.281604   -0.322598   -1.696037
C     -1.750115   -0.495491    1.686854
O     -2.769797    0.251261   -2.694346
O     -2.002937   -1.670673   -1.797908
O     -1.981206   -0.674725    2.927763
O     -0.547199   -0.598964    1.006853
H      4.796267    0.608949    1.808570
H      4.159182    1.402605    0.312587
H      3.050664    1.011815    1.673834
H     -3.363392    1.358967    2.160888
H     -3.981478    1.608470    0.449288
H     -4.726568    0.329749    1.485733
H      4.225941   -0.753007   -0.433917
H      4.075948   -1.460452    1.266389
H      2.062415   -1.910249   -0.072548
H      1.745852   -0.771211    1.295175
H      2.075938    1.153184   -0.229123
H      2.440465    0.011344   -1.605818
H      0.104811   -0.676094   -1.733676
H      0.278182    1.081362   -1.794365
H     -3.326130   -1.055324    0.387904
H     -0.372301    1.371232    0.505824
H     -2.356234    1.497958   -0.586668
H     -2.459388   -2.295005   -2.467883
