30

C      4.333162    0.295298    0.530609
C      3.542637   -0.149484   -0.678976
C      2.144964   -0.540939   -0.229353
C      1.536448    0.676628    0.397768
C      0.153123    0.360359    0.877800
C     -0.699396   -0.074394   -0.289065
C     -3.013245   -0.818186   -0.877405
C     -4.353470   -0.322843   -0.346226
C     -2.092440   -0.372805    0.239791
C     -3.950497    0.992757    0.217446
O     -4.656342    2.034530    0.202482
O     -2.676952    0.828595    0.742945
H      4.258563    1.398184    0.680682
H      3.985628   -0.198827    1.454310
H      5.410358    0.039624    0.411482
H      4.040940   -0.967885   -1.216204
H      3.438870    0.723824   -1.357892
H      2.147964   -1.420492    0.420034
H      1.596480   -0.798972   -1.165947
H      1.541460    1.489945   -0.361172
H      2.154937    0.982121    1.274530
H      0.172832   -0.492010    1.588424
H     -0.318732    1.223235    1.390295
H     -0.805196    0.708536   -1.057186
H     -0.342142   -1.041756   -0.716818
H     -3.010258   -1.913717   -1.024544
H     -2.700253   -0.260070   -1.788131
H     -4.639940   -0.990751    0.483512
H     -5.113573   -0.236523   -1.140355
H     -2.085928   -1.153981    1.025187
