81

C     -4.942356    0.176093    3.945983
C     -1.538889   -4.092771   -2.836557
C      5.549573    3.855429    1.704577
C      6.582373   -1.654672   -2.346803
C     -6.777248    2.443768   -0.282464
C     -8.046267    2.856670   -0.703596
C     -7.191711    0.384884   -1.369744
C     -1.161950   -0.561197    0.426109
C     -2.733232   -1.936299   -1.326050
C      7.550789    2.158041    0.844546
C      3.092600   -2.256001   -0.749715
C     -5.114378    1.657373    2.139165
C      1.739042   -1.319789    1.862644
C    -10.314544    1.241546   -3.043043
C     10.495591    0.219767   -0.007932
C     -6.332969    1.197056   -0.612530
C     -0.590791   -1.583304   -0.273936
C      1.924462   -1.302777   -0.454221
C     -8.885003    2.057859   -1.444067
C     -1.425097   -2.276553   -1.168643
C     -8.441202    0.777627   -1.790006
C     -2.507473   -0.199904    0.283979
C     -3.305557   -0.884569   -0.601899
C      6.250134    1.774512    0.666782
C      8.592004    1.334325    0.417976
C     -4.521931    0.735798    1.134954
C     -4.994482    0.773243   -0.256649
C      0.761391   -2.132317   -0.042175
C      8.252253    0.145906   -0.181713
C      5.880735    0.588616    0.069498
C      6.925080   -0.231909   -0.358035
C      3.881714   -0.737756    0.679713
C      2.406222   -0.565660    0.731666
O      1.998264    0.767779    0.644887
O     -4.684860    1.410775    3.412294
O     -0.851101   -3.333005   -1.899380
O      5.204692    2.612737    1.099870
O      6.684765   -1.432841   -0.965029
O      4.073747   -2.046891    0.166338
O      0.928296   -2.296949    1.375262
O    -10.154588    2.191046   -1.981978
O     -9.470595    0.193929   -2.536436
O      9.972863    1.421866    0.450066
O      9.419256   -0.495769   -0.521094
O     -3.066852    0.849669    1.047324
O     -4.665151   -0.543560   -0.789464
O      4.590155    0.146450   -0.142563
H     -4.553063    0.129677    5.016210
H     -5.968356   -0.167450    3.974688
H     -4.304255   -0.608363    3.432177
H     -1.583065   -3.571872   -3.840735
H     -1.052780   -5.062528   -3.015202
H     -2.593040   -4.277103   -2.571608
H      6.312418    3.752761    2.504406
H      5.949628    4.503326    0.880738
H      4.633040    4.282023    2.138786
H      6.126540   -2.672103   -2.488511
H      5.954131   -0.921882   -2.863285
H      7.608091   -1.632108   -2.763356
H     -6.204935    3.162789    0.288533
H     -8.404884    3.851545   -0.445293
H     -6.834350   -0.599980   -1.631427
H     -0.608800    0.021286    1.146547
H     -3.379611   -2.469821   -2.029242
H      7.809314    3.111039    1.324802
H      3.422054   -2.058182   -1.777224
H      2.692918   -3.323308   -0.696027
H     -6.197911    1.576099    2.083022
H     -4.721610    2.699720    1.928152
H      2.596745   -1.741864    2.470112
H      1.247444   -0.555347    2.518372
H     -9.863352    1.712743   -3.949526
H    -11.349104    0.937327   -3.199562
H     11.194346    0.465067   -0.861296
H     11.038374   -0.352578    0.774619
H      1.721217   -0.673729   -1.353388
H     -4.666442   -0.337778    1.497164
H     -4.265795    1.431812   -0.853510
H      0.807816   -3.169361   -0.426496
H      4.328036   -0.773118    1.685621
H      2.071463    1.242994    1.533830
