43

C     -1.064446    3.773568   -0.342932
C      4.690724   -0.281972   -0.400516
C     -4.374191   -1.366539    1.131567
C     -3.795925   -0.135818    1.085490
C     -3.621526   -2.434412    0.755354
C      2.133264    1.960403   -0.432160
C      1.184353    3.063310   -0.116540
C     -1.961340    1.437752    0.614450
C      1.516527   -3.954480   -0.605950
C     -2.463557    0.052765    0.665627
C      1.517474    0.621012   -0.451711
C     -0.524219    1.564561    0.423161
C     -2.297819   -2.315462    0.331095
C     -1.733721   -1.072381    0.291816
C      0.199828    0.363685   -0.057623
C     -0.326245   -0.912235   -0.096155
C      2.274926   -0.440931   -0.878899
C      0.431860   -1.992174   -0.526192
C      1.737328   -1.709928   -0.911233
N     -0.146647    2.637025   -0.495249
O     -1.634974   -3.454114   -0.022842
O      3.589647   -0.221900   -1.278281
O      0.255419   -3.333222   -0.691250
O      2.287909   -2.949912   -1.298579
H     -1.719417    3.800277   -1.226387
H     -1.658659    3.700500    0.570771
H     -0.446421    4.704085   -0.378126
H      4.461265    0.047125    0.619070
H      5.446743    0.447485   -0.807251
H      5.167215   -1.264778   -0.368785
H     -5.423472   -1.505934    1.463043
H     -4.340462    0.752798    1.371662
H     -4.039433   -3.426235    0.775855
H      2.604810    2.109535   -1.446660
H      2.972848    2.010533    0.307748
H      1.496807    3.999278   -0.618198
H      1.159958    3.193892    1.002424
H     -2.480459    2.011031   -0.224198
H     -2.252266    1.995379    1.544576
H      1.500248   -4.899758   -1.147660
H      1.794651   -4.018852    0.451938
H     -0.030135    1.825363    1.399681
H     -2.088466   -4.380323    0.018046
