41

C     -9.445041   -1.765527   -0.094004
C     -0.002897    0.993237    1.127321
C     -0.926979    0.872828    0.947749
C      1.665180    1.188872    1.458102
C     -2.109413    0.734282    0.729076
C      2.119722    0.767588    0.189367
C     -3.190564    0.601989    0.536295
C      2.497195   -0.765886    0.040631
C     -4.520595    0.441273    0.316719
C      3.373385   -0.742512   -1.191871
C     -5.702163    0.287719    0.127104
C      4.754956   -0.366992   -0.857955
C     -6.790115    0.135147   -0.040950
C      5.142614    0.912635   -0.249555
C     -8.057223   -0.025751   -0.244597
C      6.647315    1.104437   -0.311849
C     -9.527501   -0.235386   -0.495059
C      7.419344   -0.098631    0.086227
O    -10.054401    0.190269   -1.585290
O      8.511481   -0.478449   -0.472028
O      6.882133   -0.890690    1.159506
H     -9.120443   -1.605621    1.052873
H    -10.366887   -2.283396   -0.057229
H     -8.662882   -2.371720   -0.565476
H      1.667628    1.725404    2.297855
H      1.579487   -0.060214    1.933890
H      0.908371    0.601793   -0.383203
H      2.393830    1.401938   -0.567973
H      1.608931   -1.402439    0.081433
H      3.017659   -1.055477    0.937742
H      3.198781   -1.541202   -1.927158
H      2.917345    0.190611   -1.842009
H      5.453324   -0.650531   -1.690891
H      5.021496   -1.196415   -0.019501
H      4.827964    1.069820    0.842239
H      4.731148    1.732530   -0.925629
H      6.825542    1.921422    0.441075
H      7.023282    1.504204   -1.238613
H     -9.931510    0.297099    0.484030
H     -9.177037    0.618693   -2.075981
H      7.397536   -1.756952    1.499861
