47

C     -3.752094    0.736730   -1.290732
C     -4.692792    0.014509    0.860829
C      0.572760   -2.549230    0.036672
C      1.085517    4.719905   -0.215693
C      5.392675   -1.524108   -0.739203
C      4.668060   -2.639796   -0.543668
C      4.750726   -0.302247   -0.693481
C      3.290944   -2.603560   -0.296879
C     -0.520120    2.351251    0.228968
C      3.405424   -0.213315   -0.455739
C      2.683635   -1.367851   -0.259977
C      0.816410    2.274410   -0.048090
C     -1.222224    1.212239    0.431569
C      1.457086    1.049287   -0.126915
C     -0.591039   -0.060725    0.360613
C      0.748809   -0.134698    0.075206
C      2.799614    0.996639   -0.393158
C     -1.434148   -1.156214    0.706993
C     -2.731831   -1.157688   -0.136931
C     -3.411321    0.164095    0.066671
N      1.329509   -1.342570    0.005845
O      3.414284    2.087925   -0.569181
O     -2.094825   -0.581227    1.920089
O     -3.546533   -2.199123    0.302750
O      1.594886    3.411241   -0.263161
O     -2.578919    1.115960    0.717612
H     -4.443130    1.591194   -1.123521
H     -4.217977   -0.014451   -1.960230
H     -2.834579    1.184862   -1.757991
H     -4.677900    0.668634    1.768200
H     -5.582500    0.292976    0.228720
H     -4.863847   -1.052640    1.152249
H      0.660262   -3.223697    0.864739
H      1.180329   -3.197129   -0.735311
H     -0.320153   -2.608983   -0.632057
H      0.056041    4.823522   -0.558514
H      1.734114    5.350323   -0.886201
H      1.179814    5.186567    0.788645
H      6.475732   -1.575036   -0.932328
H      5.161176   -3.606668   -0.576819
H      5.375033    0.576506   -0.856615
H      2.786904   -3.534086   -0.124254
H     -1.006470    3.299867    0.285059
H     -1.248577   -2.032131    1.243733
H     -2.521211   -1.309017   -1.187638
H     -1.368709   -0.262504    2.489081
H     -2.958845   -2.859948    0.754792
