79

C     -1.384941    5.819785   -2.909427
C      1.233329   -3.578726   -1.822381
C      5.649946   -1.608860    5.264029
C     -5.273925   -0.460791   -2.879184
C     -5.324620   -0.820733   -1.552949
C     -4.289208    0.437533   -3.180892
C      1.390686    3.046979   -2.005945
C      0.430567    3.937698   -2.348415
C     -3.489412   -3.452727   -0.256935
C      5.138421    2.197248    1.086231
C     -4.452952   -3.707854    0.858620
C      4.544703    2.479735   -0.259732
C     -3.493527    0.565584   -0.907592
C     -4.784128   -0.921835    0.775087
C      2.377838    1.030667   -1.373921
C     -0.151311    1.180898   -2.171660
C     -1.131143   -2.950488   -0.496809
C      4.938357    0.446030    2.661480
C     -1.221078   -0.987453    1.575292
C     -4.460700   -0.335962   -0.543416
C      1.092208    1.618118   -1.908490
C     -2.304062   -2.618487    0.151338
C      4.305765    1.034628    1.608772
C     -3.416278    0.944260   -2.227047
C     -2.358342   -1.640673    1.180426
C     -3.765722   -1.546562    1.656940
C      2.464904    1.431396    0.049208
C     -0.829280    3.453521   -2.604112
C     -0.005503   -2.292613   -0.090588
C     -1.140496    2.138153   -2.527165
C     -0.001955   -1.311567    0.938190
C      4.293060   -0.638676    3.293432
C      3.085109    0.653469    1.109253
C      3.051980   -1.025768    2.785249
C      2.385898   -0.465158    1.729761
N     -4.146505   -2.941398    2.022248
N      3.154973    2.746996    0.054929
O      2.541320   -2.134646    3.546861
O     -1.758625    4.542064   -2.956042
O      1.158509   -2.667188   -0.778895
O      4.900479   -1.189838    4.295884
O     -2.485062    1.849520   -2.806564
O      1.225718   -0.798410    1.200268
H     -1.274093    6.141712   -1.828363
H     -0.522781    6.095301   -3.511504
H     -2.241955    6.451892   -3.328266
H      2.213686   -3.414296   -2.390853
H      0.453262   -3.434405   -2.598117
H      1.225035   -4.639017   -1.507830
H      6.594668   -0.989654    5.475851
H      5.178571   -1.683394    6.288850
H      6.101187   -2.657408    5.148149
H     -5.955773   -0.864516   -3.617745
H     -6.125768   -1.550506   -1.307372
H     -4.227807    0.743395   -4.253480
H      2.369776    3.439691   -1.852234
H      0.669316    5.014514   -2.414487
H     -3.021129   -4.482550   -0.529860
H     -3.921649   -3.140410   -1.205429
H      6.202645    1.912548    1.011259
H      5.006068    3.038715    1.807705
H     -4.410461   -4.782138    1.121355
H     -5.477600   -3.553590    0.489456
H      4.726679    1.536618   -0.813095
H      5.025679    3.346038   -0.765968
H     -2.785387    1.015328   -0.126515
H     -5.385681   -0.199788    1.427691
H     -5.660073   -1.695123    0.647701
H      3.266617    1.458904   -1.906793
H      2.481153   -0.004855   -1.516864
H     -0.416506    0.074037   -2.166823
H     -1.123995   -3.692924   -1.291204
H      5.926269    0.759829    3.060233
H     -1.170584   -0.165905    2.364749
H     -3.939845   -1.072660    2.656311
H      1.414255    1.750408    0.424883
H     -5.025658   -2.835569    2.608953
H      3.034928    3.195535    0.981431
H      3.101952   -2.573626    4.182890
