45

C     -4.214823    2.346001    0.806622
C      4.852598    1.067062   -2.156375
C      5.171128   -0.252419   -2.070918
C      3.791582    1.552543   -1.438508
C      4.413660   -1.090970   -1.254541
C      3.047903    0.712778   -0.632765
C     -1.587013   -0.113845    1.507186
C     -3.736359   -0.667983    0.511387
C     -1.386431    0.643269   -0.880433
C      2.860231   -1.159002    1.767400
C      3.341081   -0.631883   -0.520741
C     -3.024438    0.333779    1.393573
C     -0.970791   -0.363402    0.153769
C      2.599826   -1.574360    0.309403
C     -2.801659    1.120538   -0.698480
C     -3.809480    0.009748   -0.819811
C      1.152598   -1.582164    0.107343
N     -3.017743    1.584133    0.657918
O      4.199140   -1.209711    2.072632
O     -3.526901   -0.845879   -1.879622
O      0.490883   -2.581527   -0.262644
O      0.427648   -0.421397    0.330798
H     -3.907825    3.415986    0.968085
H     -4.767776    2.076435    1.746449
H     -4.859174    2.336547   -0.079799
H      5.448824    1.707340   -2.793897
H      6.004234   -0.629680   -2.635581
H      3.568433    2.612519   -1.533123
H      4.738066   -2.131010   -1.245355
H      2.224705    1.097011   -0.077741
H     -1.022650    0.716043    1.980963
H     -1.458980   -1.017245    2.127187
H     -4.758911   -0.875651    0.936728
H     -3.221080   -1.642327    0.476484
H     -0.739470    1.536294   -0.915135
H     -1.310849    0.159771   -1.876218
H      2.339375   -1.874474    2.458190
H      2.389924   -0.172818    1.964841
H     -3.441658    0.418242    2.396109
H     -1.304173   -1.369968   -0.172918
H      3.039590   -2.580407    0.219348
H     -2.981366    1.917980   -1.443420
H     -4.811804    0.473578   -0.909225
H      4.291582   -1.259050    3.057247
H     -3.731655   -1.790425   -1.652412
