54

C     -1.393359    1.394011   -2.899898
C     -1.914816    1.313967    4.804174
C      5.203329    1.658746   -1.286286
C      5.318734   -2.937757   -2.382108
C      0.535769    0.424111    0.520442
C     -0.312627    0.563833   -0.693409
C     -3.782660   -0.264270   -1.304925
C     -3.566884    1.130515   -1.913736
C      1.800842   -1.730486    0.168549
C      2.892591    0.281524   -0.349965
C     -4.367136   -0.628640    1.091120
C     -2.278555    0.933824    1.869470
C      1.755523   -0.353367    0.107706
C     -3.559905   -0.071882    0.146735
C     -2.480475    0.734185    0.528772
C     -1.596945    1.339536   -0.484737
C     -4.172671   -0.434233    2.449975
C      2.913706   -2.446716   -0.203817
C     -3.097516    0.369288    2.823653
C      4.013656   -0.417678   -0.726402
C      4.035264   -1.789635   -0.657040
N     -2.226089    1.518802   -1.751487
O     -5.019760   -1.019934    3.398511
O      2.923685   -3.831063   -0.128840
O     -2.882641    0.578424    4.150402
O      5.143992    0.248869   -1.183033
O      5.180965   -2.516587   -1.041236
H     -0.680457    2.258590   -3.013625
H     -0.880396    0.432802   -3.020707
H     -2.070166    1.491434   -3.795108
H     -1.398842    2.023792    4.136794
H     -1.131773    0.625176    5.229447
H     -2.295770    1.907540    5.665286
H      6.022146    2.004818   -1.917757
H      4.240666    1.957781   -1.794050
H      5.217214    2.172878   -0.320005
H      6.334998   -2.674736   -2.756429
H      4.603448   -2.353911   -2.993465
H      5.136763   -4.030587   -2.501826
H      0.899721    1.425904    0.821335
H      0.014721   -0.105425    1.355306
H     -0.447896   -0.404768   -1.168616
H      0.279510    1.187638   -1.426701
H     -3.137169   -1.016064   -1.762469
H     -4.834873   -0.537189   -1.543195
H     -4.247102    1.798181   -1.339674
H     -3.813909    1.117091   -2.994868
H      0.891525   -2.224064    0.532951
H      2.866994    1.380721   -0.401162
H     -5.219538   -1.265239    0.808917
H     -1.435708    1.570916    2.189148
H     -1.273850    2.350829   -0.124654
H     -4.805103   -0.824411    4.367318
H      2.098831   -4.317086    0.203021
