54

C     -0.801192   -3.095324    2.070312
C     -4.375250    3.275908    0.516197
C      4.462342    1.128902    3.248088
C      6.370972    0.374989   -1.079726
C      0.065943    0.699898    0.660876
C     -0.195990   -0.780935    0.698216
C     -2.251187   -2.662211   -1.194984
C     -2.243090   -3.299818    0.150301
C      1.885760    0.991332   -0.990957
C      2.500064    0.971469    1.280341
C     -3.789840   -0.832242   -1.999287
C     -3.178140    0.678293    0.169979
C      1.506557    0.889095    0.344577
C     -2.899593   -1.329839   -1.070467
C     -2.580456   -0.571308    0.036827
C     -1.634598   -1.113129    1.011024
C     -4.371629    0.416446   -1.842979
C      3.183067    1.166659   -1.388824
C     -4.065109    1.189384   -0.742721
C      3.837422    1.149550    0.933519
C      4.165705    1.245425   -0.398570
N     -1.794409   -2.510301    1.233352
O     -5.274607    0.911282   -2.793228
O      3.489827    1.260544   -2.735631
O     -4.662344    2.443896   -0.604750
O      4.837229    1.231650    1.891929
O      5.474251    1.422272   -0.799323
H     -1.208685   -4.089293    2.420037
H     -0.756406   -2.481264    3.014334
H      0.183653   -3.230966    1.618668
H     -3.418474    3.819311    0.401827
H     -4.383782    2.652527    1.456689
H     -5.173292    4.027646    0.674322
H      3.636426    1.856248    3.491584
H      5.305951    1.419133    3.928651
H      4.080760    0.112745    3.472609
H      6.990476    0.105269   -0.193812
H      7.080445    0.646776   -1.881823
H      5.823076   -0.538471   -1.410417
H     -0.127046    1.196727    1.629602
H     -0.511837    1.234309   -0.100911
H      0.502328   -1.221554    1.437734
H      0.089163   -1.192577   -0.284949
H     -1.252793   -2.606396   -1.681859
H     -2.873839   -3.324617   -1.865714
H     -1.617436   -4.239455    0.129795
H     -3.283421   -3.676694    0.348299
H      1.131061    0.930969   -1.754641
H      2.230174    0.894902    2.320860
H     -4.039986   -1.442718   -2.880658
H     -2.931408    1.283719    1.042010
H     -1.854905   -0.599439    1.995071
H     -5.688397    1.823447   -2.662153
H      4.406491    1.387828   -3.095552
