45

C     -4.791153   -1.295143    1.017460
C      4.633002   -1.223308    2.513241
C      4.455367   -2.098106    1.465789
C      4.188761    0.069601    2.360873
C      3.842288   -1.684219    0.284145
C      3.587074    0.454356    1.185985
C     -1.351395    0.087980    1.137525
C     -3.524945    1.290115    0.852529
C     -1.957524   -0.600396   -1.196810
C      3.573588    1.125816   -1.812120
C      3.393543   -0.392450    0.120136
C     -2.840313    0.057993    1.382336
C     -0.998783    0.171618   -0.321273
C      2.743467    0.084052   -1.106107
C     -3.389303   -0.448122   -0.729565
C     -3.796631    0.995449   -0.584231
C      1.362339    0.531139   -0.936276
N     -3.433749   -1.014320    0.609454
O      4.817378    0.638805   -2.179071
O     -3.161714    1.835917   -1.471137
O      1.113503    1.728143   -1.228251
O      0.318245   -0.240183   -0.487405
H     -5.083839   -2.260160    0.554328
H     -4.879026   -1.398171    2.099448
H     -5.470482   -0.522880    0.591025
H      5.115943   -1.561456    3.435499
H      4.808711   -3.118778    1.592419
H      4.332031    0.749317    3.187380
H      3.733220   -2.413908   -0.495461
H      3.235220    1.478295    1.065238
H     -0.948073    0.959897    1.696752
H     -0.925722   -0.813923    1.636293
H     -4.502678    1.402406    1.390484
H     -2.927602    2.205960    1.014910
H     -1.729934   -1.692774   -1.072545
H     -1.915640   -0.269719   -2.236176
H      3.694081    2.037941   -1.157904
H      3.051461    1.456119   -2.727140
H     -3.012721   -0.033346    2.456687
H     -1.069835    1.240383   -0.614692
H      2.708792   -0.799309   -1.815932
H     -4.023478   -1.002504   -1.437862
H     -4.896253    1.037049   -0.804538
H      4.911500    0.552784   -3.167810
H     -2.988720    2.692040   -0.990872
