24

C     -1.523547   -0.943345    0.831414
C     -1.087888    0.504887    0.915074
C      0.789691   -1.494176    0.033390
C     -0.649982   -1.428880   -0.311949
C      1.510831   -0.215685    0.139747
C      0.867374    0.972101   -0.470662
C     -0.634696    0.810230   -0.475791
N     -0.898614   -0.373115   -1.288545
O      2.789989   -0.353726   -0.448354
O      1.252790    2.172069    0.105901
O     -1.299655    1.865534   -1.055318
H     -1.391255   -1.501218    1.750563
H     -2.567228   -0.939549    0.435064
H     -1.864847    1.175472    1.289888
H     -0.225329    0.516990    1.639922
H      0.935251   -2.058032    1.001910
H      1.289421   -2.159543   -0.730897
H     -0.987437   -2.416875   -0.662169
H      1.734688    0.039228    1.217403
H      1.190865    1.030538   -1.548681
H     -1.897229   -0.436775   -1.541689
H      2.897755    0.246277   -1.224145
H      0.826894    2.290038    0.984036
H     -1.057841    2.697556   -0.586110
