30

C      2.421874    1.447974   -0.056074
C     -1.511177    1.779918    1.082397
C      1.263796   -2.018043   -1.018265
C      2.175979   -0.987702   -0.489701
C     -0.127330   -1.539266   -1.332686
C     -2.004394   -0.363923   -0.146358
C      1.573790    0.186807    0.166142
C     -2.273202    0.493307    1.072863
C     -0.556489   -0.682573   -0.166858
N      0.240911    0.516535   -0.239551
O     -3.631145    0.757771    1.223793
H      2.887323    1.401939   -1.073104
H      1.772230    2.349676   -0.074100
H      3.152551    1.584144    0.745550
H     -2.127313    2.529309    1.655078
H     -0.545876    1.716875    1.656506
H     -1.373650    2.233321    0.080877
H      1.734072   -2.513810   -1.916624
H      1.148703   -2.861317   -0.280277
H      2.871008   -0.626351   -1.293899
H      2.865513   -1.485415    0.255864
H     -0.043196   -0.881211   -2.243728
H     -0.785467   -2.394850   -1.516424
H     -2.266638    0.225218   -1.060232
H     -2.635857   -1.257324   -0.056473
H      1.548250    0.056314    1.287934
H     -1.898080   -0.109791    1.951086
H     -0.271640   -1.235780    0.762990
H      0.195139    0.939087   -1.193420
H     -3.799683    0.739161    2.216695
