29

C      4.371114    0.530330   -0.218069
C     -4.554546    0.736062    0.308892
C      3.029898   -0.039331    0.242734
C      2.188908   -0.443518   -0.918530
C      0.886256   -1.020209   -0.445766
C     -3.407650    0.116008    0.335976
C      0.137291   -0.012889    0.346789
C     -2.090257    0.708732    0.593597
C     -1.195167   -0.511682    0.851180
C     -3.189414   -1.302910    0.115306
C     -1.461127    1.234081   -0.667512
O     -4.068901   -2.202084    0.010052
O     -2.050656    1.672544   -1.698841
O     -0.096219    1.126661   -0.438094
O     -1.791770   -1.477377    0.041590
H      4.723491    1.338656    0.438610
H      4.307611    0.879011   -1.252398
H      5.130953   -0.292738   -0.146352
H     -4.627238    1.793996    0.483989
H     -5.459424    0.193497    0.108424
H      2.561476    0.798150    0.821971
H      3.155068   -0.887514    0.925594
H      1.986277    0.487999   -1.523772
H      2.719155   -1.109379   -1.631725
H      1.035983   -1.988007    0.082007
H      0.297559   -1.249881   -1.377725
H      0.732782    0.215901    1.278325
H     -2.056879    1.428522    1.409815
H     -1.214574   -0.722630    1.923932
