40

C      3.987762   -0.817672   -1.085255
C      3.666197    0.989560    0.447978
C     -1.602840    1.609916   -1.979330
C     -1.085722   -1.155046   -1.424148
C      1.510551   -1.155672    1.207278
C      0.142900   -1.755336    1.322430
C     -2.938984    0.775222   -0.021675
C     -1.772154   -0.318555    1.784018
C      0.738096    0.369001   -0.625334
C      3.127968   -0.183425   -0.292780
C     -1.575542    1.118109   -0.569131
C      1.750382   -0.662348   -0.200926
C     -0.836930   -0.680913    0.930065
C     -2.786867    0.726062    1.503754
C     -0.660059   -0.105517   -0.424287
O     -4.039185    0.419576    2.009965
H      3.693912   -1.694352   -1.675816
H      5.031071   -0.528318   -1.212611
H      2.875498    1.662808    0.819136
H      4.315436    1.575272   -0.210901
H      4.184174    0.591595    1.348757
H     -2.592932    1.408279   -2.409571
H     -0.855219    1.109841   -2.620676
H     -1.387983    2.706194   -2.059095
H     -0.231583   -1.684124   -1.859157
H     -1.726839   -1.936932   -0.923491
H     -1.746155   -0.680298   -2.183480
H      1.601502   -0.286781    1.879874
H      2.293202   -1.931548    1.401984
H     -0.051377   -2.136508    2.323229
H      0.011895   -2.557043    0.548191
H     -3.173375   -0.259527   -0.371493
H     -3.693035    1.511352   -0.303085
H     -1.799983   -0.810039    2.739907
H      0.922044    0.554758   -1.718506
H      0.846505    1.321516   -0.057789
H     -1.115663    1.931682    0.059097
H      1.621655   -1.534422   -0.869075
H     -2.449280    1.723716    1.860040
H     -4.199044    0.769913    2.911911
