50

C     -2.716078    3.193542    0.281058
C      0.545574    0.218490   -2.347569
C     -2.400316    2.828666   -0.931722
C      5.066254   -1.653191   -0.446182
C      4.826710   -1.683005    1.038919
C     -2.183142   -1.984711    1.771616
C     -3.535952   -1.874937    1.723338
C     -1.589144    1.719093   -1.413300
C     -0.107670    1.600873    0.527314
C      1.352837    1.436570    0.372135
C      0.065493   -1.298304    1.152983
C     -3.273437    0.013078    0.272806
C      3.125288   -0.091071   -0.095224
C      3.660526   -1.487412    0.072376
C     -1.372427   -1.101143    1.075142
C     -4.105699   -0.879261    0.976736
C     -1.929602   -0.076475    0.308063
C      0.810703   -0.851748   -0.074765
C     -0.093943   -0.252562   -1.111752
C     -0.990745    0.801295   -0.408096
N      1.817157    0.071373    0.386235
O     -5.474731   -0.723623    0.893377
O     -0.986357   -1.286523   -1.489023
H     -3.353195    4.079406    0.469898
H     -2.425886    2.702804    1.211985
H      1.379517   -0.511957   -2.583358
H     -0.131703    0.109168   -3.249134
H      0.957970    1.214295   -2.396954
H     -2.833019    3.489478   -1.727129
H      5.633208   -0.760136   -0.787219
H      5.279701   -2.590171   -0.983353
H      5.109862   -0.799433    1.651839
H      4.905575   -2.688712    1.494264
H     -1.732185   -2.778865    2.366513
H     -4.197580   -2.561925    2.266104
H     -2.197633    1.125449   -2.166503
H     -0.775440    2.150598   -2.070997
H     -0.442801    1.422510    1.568155
H     -0.279118    2.717584    0.358984
H      1.831845    2.065862   -0.402937
H      1.796911    1.868632    1.336217
H      0.402665   -0.749351    2.087926
H      0.310471   -2.363533    1.401251
H     -3.759762    0.756961   -0.318225
H      3.275943    0.195736   -1.160497
H      3.793735    0.587820    0.513955
H      2.996102   -2.344535   -0.043330
H      1.244920   -1.760568   -0.547748
H     -5.944339   -0.125576    1.572975
H     -1.357063   -1.090556   -2.397148
