50

C     -2.984566   -3.159637    0.579371
C      0.257474   -1.898355    1.505310
C     -2.987582   -1.854252    0.362460
C      5.034685    0.952512   -0.767082
C      4.968376   -0.429695   -0.174295
C     -1.301631    1.623077   -2.495365
C     -2.634232    1.996756   -2.576869
C     -2.369873   -0.951826    1.354902
C     -0.632057    0.779867    1.768339
C      0.821550    0.956800    1.739223
C      0.584265    0.559075   -1.372406
C     -3.066706    0.974448   -0.457906
C      2.829814    0.908672    0.522263
C      3.688794    0.200749   -0.500321
C     -0.836215    0.923743   -1.399771
C     -3.509530    1.676818   -1.569675
C     -1.744617    0.619767   -0.407333
C      0.947412   -0.395216   -0.277382
C     -0.220341   -1.146496    0.280983
C     -1.233425   -0.126478    0.756591
N      1.600758    0.252649    0.799778
O     -4.854732    2.036596   -1.619271
O     -0.763978   -2.054398   -0.609808
H     -3.426664   -3.874365   -0.119609
H     -2.541185   -3.598556    1.466990
H      0.049688   -1.361427    2.449497
H      1.361126   -2.102559    1.462641
H     -0.213661   -2.917868    1.555308
H     -3.440382   -1.465727   -0.536408
H      5.337985    1.034310   -1.828724
H      5.320189    1.730657   -0.051647
H      5.296541   -0.601288    0.863505
H      5.286403   -1.257744   -0.865662
H     -0.653053    1.906357   -3.328052
H     -3.036342    2.544847   -3.418096
H     -1.953061   -1.589642    2.200982
H     -3.103063   -0.303566    1.872732
H     -1.122767    1.789803    1.635683
H     -1.009585    0.446684    2.780457
H      1.226795    0.698124    2.765857
H      1.106294    2.051729    1.651725
H      0.863665    0.162238   -2.374111
H      1.179127    1.487976   -1.241372
H     -3.796540    0.736458    0.330935
H      2.674585    1.949650    0.112370
H      3.379808    1.045327    1.475991
H      3.157435   -0.079971   -1.452076
H      1.669971   -1.164292   -0.688199
H     -5.192232    2.917382   -1.243399
H     -0.014723   -2.629712   -0.919054
