37

C     -1.649128    2.820574   -0.018708
C      3.479494    0.616725   -1.332322
C     -0.592588   -1.207441   -1.345825
C     -3.096602   -0.708232   -0.151221
C     -2.898632    0.770550   -0.197769
C     -1.997005   -1.387723    0.636380
C      0.734990    1.074405   -0.221955
C      0.495602   -1.584270    0.799393
C     -1.730720    1.341257    0.056940
C      3.007805    0.050201   -0.245340
C      1.877850    0.506912    0.552153
C     -0.534170    0.583689    0.405016
C      1.517138   -0.685923    1.400990
C      3.525074   -1.153349    0.380004
C     -0.644025   -0.894158    0.130165
O      4.479438   -1.889237    0.056100
O      2.738780   -1.418368    1.514064
H     -0.918470    3.163593   -0.779980
H     -1.251413    3.174440    0.968777
H     -2.637069    3.288059   -0.206146
H      4.341633    0.208329   -1.881113
H      3.057737    1.514515   -1.758998
H     -1.173525   -0.474715   -1.944998
H      0.427566   -1.364216   -1.716031
H     -1.121728   -2.194058   -1.476154
H     -4.051160   -0.939902    0.372383
H     -3.161816   -1.066502   -1.190845
H     -3.784271    1.359569   -0.457263
H     -2.111837   -1.056625    1.692527
H     -2.092346   -2.474748    0.501704
H      0.815665    2.196390   -0.217584
H      0.830663    0.784428   -1.287841
H      0.975451   -2.352278    0.126349
H      0.061117   -2.202319    1.638823
H      2.251196    1.292902    1.267599
H     -0.392457    0.677350    1.521474
H      1.221760   -0.369823    2.409252
