12

C     -1.296067    0.298587    0.246616
C     -0.221854   -0.480905   -0.508542
C      1.031105    0.320622   -0.379284
Cl    -1.474628    1.893638   -0.484496
O     -0.059337   -1.740603    0.074584
O      1.007394    1.483161   -0.870776
O      2.132307   -0.201218    0.243545
H     -2.271983   -0.213718    0.219160
H     -0.963733    0.413701    1.297865
H     -0.528953   -0.544618   -1.573841
H     -0.131364   -1.678373    1.043101
H      2.777113    0.449725    0.692067
