49

C      6.094265   -3.371436   -0.506375
C      5.542331    2.052078   -1.605443
C      2.490590   -1.346328    0.339204
C     -4.426948    1.933602    0.280392
C      3.677757   -2.036917    0.067324
C     -5.754162    1.659082   -0.057779
C      3.437081    0.636751   -0.490534
C     -4.068549   -0.364584    0.687772
C     -0.442269    0.152003    2.077295
C     -0.525504    1.939153   -0.650972
C     -7.378061   -1.549775   -0.314094
C      2.346050   -0.007215    0.068045
C     -3.574481    0.922687    0.655459
C     -0.096008    0.001231    0.633376
C     -1.208472    0.757332   -0.058834
C      4.744506   -1.350784   -0.492567
C     -6.259105    0.371985   -0.028617
C      4.615440    0.011150   -0.774067
C     -5.397613   -0.632118    0.348402
C      1.119934    0.783071    0.318107
C     -2.140498    1.183104    1.023011
O      5.967570   -1.978469   -0.793198
O      5.700276    0.671796   -1.333652
O      0.827986    1.640454   -0.734618
O     -1.781779    0.494783    2.161625
O     -7.529643   -0.148470   -0.317751
O     -6.124559   -1.809053    0.300272
H      6.975554   -3.805833   -0.985422
H      5.213342   -3.952399   -0.893920
H      6.125327   -3.536144    0.584828
H      6.466608    2.358804   -2.178632
H      4.652581    2.290308   -2.191333
H      5.471395    2.636216   -0.645956
H      1.689304   -1.919707    0.777173
H     -4.050471    2.951487    0.250247
H      3.791125   -3.085701    0.279110
H     -6.424366    2.472515   -0.354897
H      3.357483    1.685293   -0.715059
H     -3.402483   -1.162818    0.981164
H     -0.248774   -0.752926    2.692434
H      0.171906    0.962637    2.563640
H     -0.625707    2.851066   -0.028866
H     -0.957412    2.203801   -1.648710
H     -7.377835   -1.868603   -1.391266
H     -8.213279   -2.014583    0.258108
H     -0.025997   -1.045000    0.268968
H     -1.749837    0.126123   -0.793603
H      1.376313    1.464598    1.180515
H     -2.070910    2.288237    1.189698
