33

C      2.944105    1.387676    1.048886
C     -3.254067    2.135224   -0.952617
C      3.412158    0.006510    0.642696
C      2.846339   -0.335060   -0.717278
C      1.333338   -0.322524   -0.710669
C     -1.169803    0.268182    0.254015
C     -3.334886   -0.466650    1.160455
C     -2.586221    0.467390    0.625685
C      0.732349   -1.309914    0.256670
C     -0.782535   -1.165415    0.131336
C     -2.757716   -1.780130    1.410072
O      1.169056   -2.590895    0.040390
O     -3.500005   -2.660168    1.925327
O     -3.187123    1.727598    0.400580
O     -1.444406   -1.994408    1.074993
H      2.058012    1.354134    1.718955
H      3.725404    1.968582    1.562649
H      2.620689    1.993140    0.158429
H     -3.864174    1.349402   -1.483627
H     -2.257404    2.226563   -1.421413
H     -3.817262    3.110286   -1.015768
H      4.518219   -0.049854    0.571297
H      2.997897   -0.718191    1.367258
H      3.148002    0.505774   -1.401113
H      3.260838   -1.260760   -1.130846
H      1.043222    0.727021   -0.466791
H      0.928294   -0.520135   -1.718973
H     -0.977675    0.795733   -0.722555
H     -0.558504    0.829629    1.001482
H     -4.367455   -0.231705    1.402250
H      0.993977   -1.029078    1.305368
H     -1.052846   -1.547226   -0.874747
H      1.180185   -2.870732   -0.899561
