46

C      6.419764   -0.017765   -0.590696
C      5.745791    2.457009   -1.006468
C      4.110046    0.689154   -1.133185
C      3.530954   -0.675327   -1.092940
C      1.102309   -0.734362   -0.498460
C     -4.917368   -0.937170    0.510142
C      1.594205   -0.811181    2.179516
C     -4.211301    1.006768   -1.304298
C     -2.028347   -0.342967    2.197156
C     -7.847061    0.727684   -0.856698
C      5.376195    0.991918   -0.914366
C      2.413217   -0.724413   -0.080244
C     -3.607750   -0.601483    0.306533
C      0.016529   -0.781966    0.385694
C     -2.359274   -1.115066    0.918620
C      2.638277   -0.763662    1.275812
C      0.268074   -0.820230    1.725288
C     -3.209649    0.362110   -0.588452
C     -5.930075   -0.298743   -0.200872
C     -5.548756    0.671262   -1.103456
C     -1.357045   -0.792082   -0.144058
O      3.968967   -0.754346    1.720943
O     -0.786056   -0.867503    2.621566
O     -7.311401   -0.424079   -0.206694
O     -6.743091    1.134340   -1.661650
O     -1.812510    0.483182   -0.576073
H      5.989124   -0.887847   -0.101152
H      6.866110   -0.360443   -1.553698
H      7.206484    0.422488    0.070629
H      5.132483    2.894089   -1.804844
H      5.457857    2.965876   -0.053134
H      6.832889    2.523305   -1.202607
H      3.380798    1.483051   -1.370342
H      3.094545   -0.857468   -2.118853
H      4.250507   -1.480208   -0.943521
H      0.882778   -0.703649   -1.561477
H     -5.232663   -1.708860    1.227088
H      1.770284   -0.841186    3.235072
H     -3.967442    1.769906   -2.018681
H     -2.826534   -0.472888    2.946397
H     -1.855222    0.718506    1.922129
H     -8.022207    1.478259   -0.056569
H     -8.736768    0.503678   -1.446559
H     -2.406494   -2.178893    1.198371
H     -1.475329   -1.546186   -0.969308
H      4.144156   -0.782614    2.706016
