34

C      2.819390    0.508415    1.823858
C     -1.824055   -0.963305   -1.623367
C      3.977240   -0.160981    1.521949
C     -3.050806   -1.607778   -1.483864
C      0.480374    1.206225    1.189492
C     -2.475861    0.666522   -0.052464
C      3.083458   -0.855796   -0.547134
C      1.779198    0.504025    0.944026
C     -1.531996    0.178484   -0.906496
C      4.138840   -0.854086    0.340318
C     -4.015503   -1.118822   -0.618460
C     -3.695156    0.038912    0.096016
C      0.114879    1.874032   -0.125986
C      1.896964   -0.176362   -0.250140
C     -0.209917    0.801275   -1.111238
O      5.326506   -1.538686    0.034499
O     -5.244728   -1.737053   -0.457767
O     -4.605890    0.580934    0.974047
O      1.287569    2.511521   -0.576820
O      0.828614   -0.159324   -1.112738
H      2.721400    1.041927    2.755557
H     -1.117377   -1.402443   -2.318753
H      4.820327   -0.170656    2.209889
H     -3.282292   -2.506010   -2.046937
H     -0.248412    0.395847    1.454157
H      0.590187    1.953602    1.987825
H     -2.278397    1.563176    0.526864
H      3.136743   -1.378264   -1.495281
H     -0.642371    2.648458   -0.026466
H     -0.193628    1.270304   -2.138533
H      6.072814   -1.508205    0.717656
H     -5.902094   -1.327729    0.189713
H     -4.417517    1.403708    1.501937
H      1.661499    2.086603   -1.375359
