34

C     -3.851185   -0.760485    0.315091
C      2.159535    0.539879   -1.050352
C     -4.774884    0.248741    0.128193
C      3.510888    0.726025   -1.201388
C     -1.603832   -1.748221    0.462906
C      2.514872   -0.143652    1.165023
C     -2.901391    1.700583   -0.224011
C     -2.490167   -0.578572    0.241648
C      1.632223    0.099273    0.141452
C     -4.263746    1.513081   -0.149366
C      4.425148    0.483160   -0.168128
C      3.886711    0.044030    1.015663
C     -0.289920   -1.416862   -0.256965
C     -2.001137    0.676670   -0.033431
C      0.202651   -0.124956    0.379427
O     -5.178422    2.543479   -0.340923
O      5.782921    0.691319   -0.384915
O      4.700908   -0.220046    2.082965
O      0.631802   -2.446290   -0.105153
O     -0.612714    0.915551   -0.119472
H     -4.288957   -1.741320    0.531487
H      1.470070    0.734196   -1.863930
H     -5.828817    0.057482    0.195594
H      3.948239    1.075344   -2.140227
H     -2.034314   -2.689497    0.086049
H     -1.352347   -1.779807    1.543729
H      2.126040   -0.497505    2.133002
H     -2.538746    2.698468   -0.442018
H     -0.551605   -1.205201   -1.301342
H      0.024070   -0.151166    1.472093
H     -4.816293    3.485406   -0.547224
H      6.431136    0.515939    0.357498
H      5.681588   -0.117498    2.073514
H      0.249672   -3.127548    0.502119
