54

C     -5.893253    1.328990    1.539244
C     -6.464272    0.405093   -0.672657
C      4.159514   -1.080121   -4.006846
C      5.426146   -4.379325   -0.055613
C     -0.386922    2.789783   -1.266683
C     -1.755631    2.801925   -1.436640
C      3.248845   -0.214358   -0.956602
C     -3.024180    0.392632    0.940937
C      4.059927   -2.127585    0.817363
C      1.732429   -0.309031    2.912102
C      0.228273    1.973798   -0.328471
C      2.983609   -0.077861    0.361743
C     -1.929577    1.176312    0.270900
C     -2.577688    1.988043   -0.665036
C      3.382287   -1.032948    1.284854
C      3.945300   -1.334961   -1.455960
C      4.341475   -2.288366   -0.515804
C      1.281969    0.747138    1.981735
C     -4.123672    0.514071   -0.056562
C      2.275123    1.122241    0.924951
C      1.658301    1.957406   -0.132996
C     -0.569230    1.166255    0.438223
C     -5.511812    0.304496    0.513547
O      2.373591    2.656713   -0.868184
O     -5.684021   -0.958455    1.047025
O      4.176508   -1.413201   -2.761653
O      5.024113   -3.385145   -1.017832
O      3.052710   -0.783416    2.598598
O     -3.947271    1.787136   -0.604401
O      0.038249    0.341782    1.384204
H     -5.729300    0.977034    2.587119
H     -5.336316    2.280124    1.373489
H     -6.966811    1.612310    1.446942
H     -6.563509   -0.560173   -1.220375
H     -6.078729    1.145419   -1.431685
H     -7.477553    0.727528   -0.370019
H      4.708493   -0.134667   -4.323493
H      3.125533   -0.994930   -4.511232
H      4.681484   -1.860666   -4.674044
H      4.538001   -4.914897    0.279616
H      5.957651   -3.929949    0.787016
H      6.142128   -5.075308   -0.563142
H      0.262192    3.423949   -1.870665
H     -2.204606    3.443782   -2.172112
H      2.919703    0.551125   -1.657788
H     -3.205949    0.876472    1.915767
H     -2.651250   -0.651670    1.004481
H      4.379823   -2.879748    1.550867
H      1.062390   -1.184187    2.892337
H      1.728325    0.044512    3.976435
H      1.040124    1.675349    2.568155
H     -3.944333   -0.240677   -0.866343
H      3.057695    1.741690    1.409558
H     -4.966025   -1.232785    1.655628
