42

C      6.184953   -0.331360   -0.178015
C      1.628593    1.366521   -1.860267
C      0.544297    2.087539   -1.043621
C     -1.095498   -0.750031    0.526534
C     -3.527168   -1.340503    0.321596
C     -4.065583    1.285619   -0.361785
C      3.482846    0.137902   -0.693384
C      1.596646   -1.397050    0.633799
C     -1.603359    1.788250   -0.139127
C      2.149304    0.338419   -0.919600
C     -2.508904   -0.428965    0.252134
C     -2.796030    0.885668   -0.092504
C      1.196017   -0.422424   -0.262577
C     -0.233169   -0.152882   -0.561754
C     -4.829688   -0.981932    0.057252
C     -5.078960    0.329701   -0.281306
C      2.920754   -1.605635    0.867132
C      3.852711   -0.844633    0.208962
N     -0.551860    1.175259   -0.914306
O     -5.875992   -1.921480    0.129307
O     -6.376339    0.706040   -0.548994
O      3.316806   -2.594944    1.776634
O      5.193733   -1.090632    0.476616
H      5.951276    0.743087   -0.021110
H      7.168233   -0.567196    0.296408
H      6.202762   -0.568856   -1.270696
H      2.400524    2.066077   -2.200030
H      1.111388    0.833712   -2.677641
H      0.237924    3.008957   -1.531318
H      0.961144    2.246361   -0.010252
H     -0.844703   -0.392671    1.533725
H     -1.020160   -1.871466    0.430935
H     -3.297485   -2.356865    0.589018
H     -4.251477    2.308773   -0.624698
H      4.226996    0.715821   -1.191958
H      0.874074   -1.992558    1.149612
H     -1.922545    2.703682   -0.692500
H     -1.236799    2.034745    0.858756
H     -0.450833   -0.790581   -1.472989
H     -5.634021   -2.867644    0.382169
H     -6.624330    1.658197   -0.804091
H      2.623923   -3.150021    2.256281
