50

C     -3.269031    1.154371   -2.062796
C      2.706009    3.989368    1.575372
C     -3.174772    1.106485   -0.585763
C      4.393663   -2.132085   -0.389329
C      4.568578   -0.766306   -0.349804
C     -2.498646   -0.336258    2.041297
C      3.142125   -2.697559   -0.424175
C      3.458553    0.048625   -0.345236
C     -0.168291   -3.294531   -0.499221
C     -1.983376    0.709135    1.438205
C     -2.890926   -1.520331    1.283604
C     -1.353779   -3.011127    0.380082
C     -0.866460    1.744638   -0.468307
C      2.021832   -1.854557   -0.419003
C      0.676041   -2.096011   -0.447288
C      2.173892   -0.480847   -0.379562
C      0.058143   -0.869312   -0.423798
C     -1.419726   -0.709324   -0.450319
C      1.211097    2.203152    0.770230
C     -1.808770    0.657757   -0.041919
C      0.585389    1.479814   -0.363526
N     -2.036644   -1.800253    0.165755
N      0.952974    0.105896   -0.383493
O      0.988253    1.898361    1.978118
O      1.158474    2.049200   -1.538777
O      2.067827    3.246538    0.552404
H     -4.383129    1.153794   -2.293124
H     -2.943112    2.151875   -2.437607
H     -2.872486    0.323484   -2.633904
H      2.233234    4.996110    1.586419
H      3.782104    4.116036    1.421920
H      2.475047    3.483645    2.532357
H     -3.365438    2.164613   -0.223873
H     -4.011293    0.538454   -0.124755
H      5.269767   -2.765728   -0.392652
H      5.580422   -0.327240   -0.322131
H     -2.615494   -0.267549    3.136603
H      2.972434   -3.771608   -0.455777
H      3.577947    1.140759   -0.315075
H      0.330343   -4.199977   -0.091986
H     -0.475919   -3.566107   -1.533999
H     -1.696173    1.602221    2.010365
H     -2.812197   -2.383925    2.013101
H     -3.949653   -1.566345    0.961035
H     -1.000781   -3.115569    1.433268
H     -2.077464   -3.851681    0.199096
H     -1.090986    2.625102    0.206664
H     -1.174049    2.093235   -1.474921
H     -1.651159   -0.771395   -1.572063
H      1.205605    1.372957   -2.241709
