55

C      5.381160    3.233904   -2.548781
C      4.696158    0.545309   -2.333112
C      0.146316   -0.572539    1.575606
C      4.352984   -0.805502   -2.253586
C      1.443384   -1.070110    1.657372
C      4.671712    0.673840    0.009504
C     -0.250267   -1.887649   -0.339693
C     -4.486184    3.309144    0.036326
C      2.865561   -3.449840   -1.546209
C      4.861771    1.309840   -1.202068
C     -0.728040   -0.958039    0.591692
C      4.171484   -1.406025   -1.028468
C      1.849261   -1.973456    0.719923
C      3.811306   -2.789931   -0.599317
C      1.016044   -2.399163   -0.292749
C      4.332606   -0.657458    0.127214
C     -4.292024    1.978862    0.717101
C     -5.161489    0.900127    0.103079
C     -5.103055   -0.257071    1.092663
C     -3.867911   -0.234622    1.934140
C      3.221001   -2.537021    0.758830
C     -2.683664    0.418095    1.286039
O     -5.791520    3.771920    0.164649
O     -6.459842    1.323452   -0.112388
O     -5.284889   -1.475529    0.431219
O     -4.081493    0.275730    3.214948
O      5.200699    2.644334   -1.275857
O      1.519093   -3.314407   -1.190805
O     -1.994680   -0.496831    0.480670
O      4.093690   -1.497839    1.231543
O     -2.985590    1.557818    0.566649
H      6.161862    2.674313   -3.140690
H      4.450820    3.205033   -3.153384
H      5.666804    4.297228   -2.441108
H      4.836290    1.005865   -3.305395
H     -0.119166    0.132382    2.335839
H      4.225394   -1.397529   -3.162124
H      2.112770   -0.743993    2.451555
H      4.790251    1.233426    0.940376
H     -0.892281   -2.233529   -1.143257
H     -3.836526    4.066510    0.519521
H     -4.167359    3.245948   -1.018806
H      3.080493   -4.557426   -1.555893
H      3.010329   -3.106378   -2.595209
H      4.729291   -3.397379   -0.445881
H     -4.487576    2.087051    1.803951
H     -4.677498    0.517690   -0.837325
H     -5.981581   -0.128570    1.760407
H     -3.576143   -1.316024    2.097721
H      3.294310   -3.415633    1.405199
H     -2.005626    0.737250    2.100097
H     -6.238217    3.392938    0.978224
H     -7.129405    0.600545   -0.016057
H     -4.430484   -1.830825    0.077650
H     -3.280334    0.771767    3.533194
