55

C     -8.237810    2.534572   -1.123805
C     -7.363057   -0.924240   -0.156906
C      0.733313    0.405271    1.009453
C     -6.246310   -1.677678    0.139234
C     -0.652106    0.477558    1.194497
C     -5.955222    0.951774   -0.507884
C      0.494611   -1.442684   -0.413154
C      6.224100    1.386997   -1.683444
C     -3.074471   -2.162692   -0.943074
C     -7.221010    0.413270   -0.486576
C      1.331906   -0.534071    0.219532
C     -4.990899   -1.127606    0.114022
C     -1.430881   -0.455451    0.537339
C     -3.623892   -1.645621    0.373596
C     -0.858316   -1.410614   -0.262476
C     -4.846516    0.200702   -0.213104
C      5.606792    1.223486   -0.285346
C      6.512753    0.356508    0.499016
C      5.817434   -0.997342    0.692721
C      4.552957   -0.650325    1.457438
C     -2.877902   -0.378769    0.730583
C      3.688986    0.217456    0.590333
O      5.532543    2.334501   -2.419896
O      6.712261    0.906385    1.758075
O      5.470990   -1.561961   -0.527081
O      4.900062    0.034477    2.619606
O     -8.322820    1.181337   -0.784997
O     -1.693779   -2.337421   -0.909122
O      2.682498   -0.574458    0.062834
O     -3.490831    0.549508   -0.177462
O      4.331046    0.830359   -0.443737
H     -9.224977    2.999868   -1.118373
H     -7.777604    2.692882   -2.130209
H     -7.611490    3.069273   -0.356095
H     -8.363756   -1.351204   -0.139846
H      1.352552    1.145291    1.530617
H     -6.378096   -2.731928    0.397275
H     -1.056030    1.249663    1.835515
H     -5.861191    2.014271   -0.771552
H      0.952935   -2.185248   -1.036373
H      6.209058    0.409370   -2.221196
H      7.268028    1.706614   -1.619677
H     -3.309153   -1.390331   -1.708124
H     -3.570395   -3.138968   -1.159790
H     -3.588455   -2.398344    1.173648
H      5.623130    2.252320    0.148975
H      7.491865    0.193966   -0.003102
H      6.456649   -1.709083    1.222398
H      4.086811   -1.596403    1.756708
H     -3.158646   -0.029677    1.743348
H      3.260994    1.000290    1.236539
H      5.599999    2.125668   -3.397298
H      7.360739    1.669999    1.663864
H      6.229334   -1.775983   -1.092660
H      4.301271   -0.181134    3.385194
