94

C      5.166272   -1.954982    1.019048
C     -4.510797   -1.757410   -2.849344
C     -3.106298   -1.362517    4.921748
C     -6.591280    4.292131   -1.580671
C     -0.232669   -4.386378    2.522960
C     -6.393957   -0.345780    2.702751
C     -8.299389    1.824966    1.398024
C      2.382536    0.180904   -0.155277
C      3.159723   -1.575929   -1.514208
C      1.221036   -0.517212    0.077832
C      2.000714   -2.260857   -1.275201
C      8.020397   -1.117164   -1.222789
C     -4.795188    1.712558   -3.158389
C      7.257573   -1.715883   -0.062193
C     -4.665047    0.364710   -3.835734
C      4.612532    0.429526   -1.193761
C      9.146388    1.103597   -1.254530
C     -2.136265   -0.955434   -1.441295
C      6.900817    2.280398   -0.233788
C     -3.102846   -0.905385    2.195168
C      9.754412    4.546860   -0.418830
C      3.353614   -0.344552   -0.950163
C      8.031956    0.366614   -0.974030
C      0.989869   -1.768594   -0.477439
C     -4.972367    1.452800   -1.709272
C      6.869339    0.900865   -0.458413
C     -3.152652   -0.643168    0.844451
C     -2.180233   -1.164306   -0.002159
C      5.662338    0.103552   -0.154952
C     -3.083318   -0.000653   -2.034552
C      9.156893    2.448193   -1.028212
C      8.023029    3.037137   -0.513675
C     -2.102075   -1.687720    2.757330
C     -4.083205    0.573385   -1.108187
C     -4.152692    0.257700    0.264364
C     -5.938218    2.015883   -0.918375
C     -1.170850   -1.950037    0.552716
C     -1.158054   -2.188472    1.897272
C     -5.120430    0.815955    1.043855
C     -6.017171    1.706591    0.438532
N      5.900366   -1.286516   -0.003939
N     -3.794878   -0.544409   -3.184734
O     -2.102461   -1.916615    4.107079
O     -6.832534    2.900459   -1.506682
O     -0.132255   -2.979432    2.407568
O     -5.346512    0.592847    2.384107
O     -6.996499    2.292443    1.189905
O     10.135561    3.432881   -1.216815
O      8.339960    4.396397   -0.396634
O     -0.167274   -2.497276   -0.263258
H      5.875643   -2.232051    1.833151
H      4.706046   -2.911666    0.682521
H      4.399832   -1.301976    1.525152
H     -4.019531   -2.668905   -3.256225
H     -5.521106   -1.730304   -3.293783
H     -4.640072   -1.876026   -1.752411
H     -4.117020   -1.718563    4.660934
H     -2.893188   -1.504692    6.006079
H     -3.092894   -0.254166    4.746555
H     -7.559201    4.769737   -1.864984
H     -5.759803    4.554589   -2.247137
H     -6.381513    4.658042   -0.535302
H     -0.202122   -4.730365    3.575028
H      0.617152   -4.875275    1.994799
H     -1.180422   -4.781608    2.099067
H     -5.947357   -1.187019    3.247305
H     -6.845333   -0.765507    1.789370
H     -7.127533    0.110255    3.404387
H     -9.055740    2.552064    0.987713
H     -8.492340    1.860710    2.509370
H     -8.496310    0.805228    1.068345
H      2.491812    1.165159    0.319818
H      3.916240   -1.998362   -2.140264
H      0.449625   -0.101116    0.708489
H      1.891666   -3.236314   -1.745232
H      7.530304   -1.360530   -2.182817
H      9.052001   -1.500796   -1.175793
H     -3.925964    2.370343   -3.361493
H     -5.681407    2.207333   -3.610135
H      7.255154   -2.829261   -0.238238
H      7.807552   -1.543778    0.861559
H     -5.703306   -0.066437   -3.851849
H     -4.405996    0.478468   -4.911531
H      4.962517    0.284099   -2.219035
H      4.350794    1.499822   -1.072383
H     10.037828    0.627408   -1.661047
H     -1.078847   -0.617643   -1.678695
H     -2.209945   -1.929822   -1.983044
H      6.028185    2.760815    0.166549
H     -3.792262   -0.484533    2.862011
H     10.075433    5.468115   -0.905780
H     10.197714    4.445082    0.589508
H      5.261160    0.496202    0.824828
H     -2.525361    0.890570   -2.450601
