38

C     -5.105985    2.021360    0.472039
C     -4.116870   -0.228052    1.000086
C      5.227611    0.637680    0.676975
C     -0.090815   -2.157557   -1.463451
C      3.676487   -0.606555   -0.781865
C      2.839566    0.135334    1.360998
C      2.352286   -1.218860   -1.097519
C      1.477440   -0.301138    0.969573
C     -2.899727    1.470678   -0.366714
C     -1.344634   -0.537689   -0.189952
C     -3.931619    1.072590    0.327068
C      3.889401    0.013810    0.348453
C     -0.044821   -1.047022   -0.748029
C      1.232047   -0.368043   -0.523852
C     -1.666496    0.792659   -0.663804
O     -0.831948    1.451774   -1.399725
H     -5.067882    2.425189    1.497716
H     -4.994315    2.796015   -0.288746
H     -6.042447    1.443277    0.327301
H     -5.036294   -0.175545    1.664684
H     -4.384792   -1.045718    0.286052
H     -3.291944   -0.505215    1.648705
H      5.535508    0.206831    1.654589
H      5.962458    0.410157   -0.115323
H      5.037740    1.705009    0.833905
H      0.781982   -2.625592   -1.920719
H     -1.052362   -2.642139   -1.611347
H      4.457936   -0.695458   -1.523079
H      3.163420   -0.501599    2.237656
H      2.757165    1.157328    1.790678
H      2.320345   -2.270885   -0.707546
H      2.264852   -1.275784   -2.196279
H      1.242494   -1.312828    1.367885
H      0.675136    0.363383    1.377029
H     -3.044111    2.518257   -0.778145
H     -2.136075   -1.272356   -0.306475
H     -1.124657   -0.454322    0.918012
H      1.313918    0.621025   -1.006065
