52

C      2.541002    0.470817    1.539671
C      7.257261    1.140917   -0.295505
C     -5.835643   -3.065933    0.295715
C     -3.167804    3.315953   -1.406216
C      6.466006    1.251216   -1.417735
C      6.820558    0.408991    0.773179
C     -4.840358   -3.073006   -0.639869
C     -5.748601   -2.180702    1.353271
C     -2.602273    2.244677   -2.061757
C     -3.504467    3.143495   -0.080336
C      5.228442    0.610509   -1.441861
C      5.585868   -0.223813    0.735877
C     -3.750575   -2.207377   -0.541060
C     -4.668394   -1.336250    1.433877
C     -2.383117    1.032677   -1.395377
C     -3.284958    1.939550    0.575618
C     -1.194950   -1.058680    0.251930
C     -0.043956   -0.082946    0.387729
C      3.489851   -0.792556   -0.405152
C      2.346237    0.045428    0.102070
C      4.780863   -0.127951   -0.371464
C     -3.648348   -1.315637    0.510718
C     -2.726219    0.882014   -0.073048
C     -2.497033   -0.390981    0.628478
N      1.155275   -0.801279    0.008292
H      3.541719    0.866882    1.716245
H      1.824720    1.312118    1.750307
H      2.258206   -0.340154    2.256766
H      8.237869    1.645676   -0.271100
H     -6.696610   -3.710892    0.267549
H     -3.333529    4.260242   -1.941165
H      6.846921    1.837586   -2.237686
H      7.432739    0.311725    1.666567
H     -4.927288   -3.773918   -1.460804
H     -6.535027   -2.161852    2.109675
H     -2.337029    2.381454   -3.107709
H     -3.947927    3.982580    0.434077
H      4.643437    0.730246   -2.351527
H      5.257522   -0.806221    1.606434
H     -3.007489   -2.273078   -1.318707
H     -4.624829   -0.654911    2.269320
H     -1.942871    0.217075   -1.924190
H     -3.555299    1.818235    1.622290
H     -1.203416   -1.547220   -0.726065
H     -1.007098   -1.861881    1.007721
H     -0.194235    0.795215   -0.291944
H     -0.005402    0.239874    1.441584
H      3.497001   -1.721685    0.238451
H      3.191655   -1.160338   -1.417650
H      2.144903    0.940545   -0.506840
H     -2.393552   -0.147462    1.727598
H      1.060243   -1.008977   -1.026243
