52

C      2.672169   -0.884404    1.808817
C      6.845444   -0.457360   -1.020565
C     -2.698507   -2.654381   -2.479518
C     -5.562186    2.882741    0.714778
C      5.822532   -0.537507   -1.940233
C      6.542225    0.020140    0.236274
C     -3.041767   -2.847292   -1.171162
C     -2.155217   -1.475311   -2.938022
C     -5.348861    1.810831    1.549213
C     -4.643060    3.165823   -0.255295
C      4.531766   -0.148329   -1.604893
C      5.254614    0.405308    0.561602
C     -2.832678   -1.806833   -0.265624
C     -1.962459   -0.465995   -2.010245
C     -4.231463    1.017180    1.429788
C     -3.516684    2.381146   -0.390064
C     -1.549888   -0.061264    1.564920
C     -0.232705   -0.788928    1.343238
C      2.841313    0.734714   -0.026440
C      1.999598   -0.395147    0.532876
C      4.216577    0.330979   -0.350403
C     -2.292971   -0.618611   -0.689430
C     -3.289727    1.295720    0.446602
C     -2.071206    0.478089    0.271236
N      0.694366    0.156638    0.799225
H      3.692698   -1.213145    1.566472
H      2.137863   -1.759389    2.231693
H      2.676866   -0.112710    2.598707
H      7.851266   -0.763404   -1.290392
H     -2.860898   -3.466391   -3.190024
H     -6.458776    3.503184    0.826150
H      6.067627   -0.913954   -2.927040
H      7.357335    0.081569    0.961560
H     -3.468603   -3.782477   -0.828175
H     -1.893856   -1.357012   -3.987781
H     -6.103791    1.621379    2.305885
H     -4.813879    4.005975   -0.906568
H      3.734140   -0.215577   -2.336888
H      5.035178    0.777030    1.551263
H     -3.120360   -2.001697    0.759776
H     -1.535231    0.492298   -2.313836
H     -4.098037    0.188716    2.098957
H     -2.788890    2.600965   -1.154254
H     -2.272412   -0.720113    2.050283
H     -1.382885    0.810345    2.243760
H      0.109466   -1.318028    2.230690
H     -0.421890   -1.564173    0.543397
H      2.289340    1.102399   -0.932368
H      2.794352    1.565681    0.708610
H      1.953014   -1.255753   -0.160004
H     -1.294653    1.157543   -0.156268
H      0.823791    0.998790    1.389718
