52

C      5.828473   -2.765625    1.054921
C     -4.842410    3.379701   -0.242161
C     -4.030023   -3.613029   -2.074538
C      3.342429    1.543267    1.404298
C      4.649836    1.856698    1.750491
C      3.954345   -0.727983    1.069487
C     -3.235171    0.996601   -0.355509
C     -3.025130   -1.263460   -0.967939
C     -0.168604    1.585418    1.308311
C      0.875892   -0.365173   -1.433400
C      2.971492    0.269384    1.062404
C     -2.460111   -0.143545   -0.407445
C      0.837505    1.190836    0.281370
C     -0.105123    0.559874   -0.767722
C      5.587411    0.847876    1.745316
C      5.248204   -0.463118    1.402891
C     -4.539433    1.018469   -0.849799
C     -4.308824   -1.307958   -1.474689
C     -5.046179   -0.138908   -1.399392
C      1.587622   -0.055737    0.689870
C     -1.068766   -0.117744    0.134619
O      6.910974    1.077499    2.077756
O     -6.334642   -0.163838   -1.901924
O      6.225868   -1.460514    1.408824
O     -5.316357    2.170203   -0.795050
O     -4.855751   -2.463232   -2.039078
O      1.561573   -0.918455   -0.371094
O     -1.046614    0.524281    1.365696
H      5.234858   -2.781016    0.096060
H      5.151792   -3.137570    1.846394
H      6.695108   -3.458483    0.989201
H     -4.006572    3.809311   -0.821396
H     -4.406473    3.100894    0.762003
H     -5.643329    4.088364   -0.033693
H     -4.490411   -4.427293   -2.678093
H     -3.055990   -3.389862   -2.599173
H     -3.742941   -3.953967   -1.060091
H      2.614655    2.334763    1.415528
H      4.912329    2.866110    2.014466
H      3.634092   -1.728586    0.794923
H     -2.834372    1.899386    0.075280
H     -2.425798   -2.153210   -1.010602
H      0.290174    1.681846    2.331748
H     -0.675755    2.512762    1.002446
H      0.340973   -1.179173   -1.979634
H      1.521557    0.216518   -2.112991
H      1.436293    1.978969   -0.157782
H     -0.526924    1.316672   -1.427579
H      1.035080   -0.527270    1.557279
H     -0.701334   -1.156135    0.318729
H      7.191549    2.022875    2.332384
H     -6.747046   -0.987695   -2.312935
