35

C      1.811560   -3.392499   -0.232875
C     -3.498020   -1.068630    0.851735
C      0.691036   -2.405982   -0.485156
C      1.457865    3.860514    1.123429
C      2.155864    2.737312    1.477100
C      0.331530    3.723129    0.345860
C      1.734355    1.494856    1.059759
C     -0.066940    2.470941   -0.056824
C      1.164400   -1.054982    0.010821
C      0.623546    1.302845    0.287093
C     -0.251480    0.102205   -1.641101
C     -1.082218   -0.404821    0.627553
C     -2.532059   -0.533996   -1.354547
C      0.093877    0.010190   -0.203535
N     -1.409611   -0.140710   -2.125858
N     -2.340757   -0.661466    0.043163
O      0.760316    0.479011   -2.511638
O     -0.971654   -0.534067    1.872215
O     -3.662950   -0.767931   -1.853545
H      1.457703   -4.406922   -0.506634
H      2.721938   -3.101559   -0.799492
H      2.028652   -3.377060    0.855349
H     -4.156059   -0.198980    0.985913
H     -3.160616   -1.520619    1.810906
H     -4.079932   -1.853588    0.311783
H     -0.148564   -2.714100    0.189337
H      0.352099   -2.373229   -1.519020
H      1.790236    4.860778    1.454694
H      3.032474    2.828361    2.080571
H     -0.212420    4.621602    0.072626
H      2.309936    0.619276    1.352702
H     -0.961180    2.383101   -0.671911
H      2.068915   -0.713232   -0.516436
H      1.387826   -1.107611    1.102498
H      0.560336    0.837861   -3.436533
