51

C     -4.761080    1.962755    0.892227
C     -1.291176    0.703569    0.861857
C     -1.690102   -0.521174   -2.322963
C      4.235219    1.677754    1.258180
C     -2.861013   -1.656416    1.081974
C     -3.699079    1.049013    1.468863
C     -2.731783    0.674912    0.398135
C     -1.622126   -0.952983   -0.883810
C     -2.883669   -0.713148   -0.128038
C     -0.579872   -0.252123   -0.081169
C      3.474762    0.485345    0.708082
C      4.407536   -0.287673   -0.180460
C      3.711793   -1.274639   -1.057880
C      2.446130   -0.636800   -1.647070
C     -4.424985   -0.124279    2.042742
C      1.643748   -0.118528   -0.498803
O     -1.950789    0.812512   -2.489900
O      3.427382    2.385654    2.132243
O      5.316093   -0.958628    0.639254
O      4.573332   -1.694961   -2.072332
O      1.816579   -1.596322   -2.403482
O     -5.485371    0.064475    2.693371
O     -3.981839   -1.419957    1.890865
O      0.400573    0.359515   -0.816427
O      2.366836    0.966312    0.049258
H     -4.282096    2.729125    0.247401
H     -5.352580    1.318535    0.177701
H     -5.412200    2.391655    1.664966
H     -0.820146    1.706228    0.696285
H     -1.175575    0.457338    1.916451
H     -0.767622   -0.789458   -2.868000
H     -2.527578   -1.087771   -2.798272
H      5.145034    1.294358    1.756110
H      4.586270    2.291404    0.395534
H     -1.955987   -1.447499    1.679916
H     -2.780951   -2.711356    0.739512
H     -3.232952    1.575153    2.325883
H     -2.799264    1.445193   -0.411931
H     -1.432864   -2.062052   -0.860803
H     -3.807618   -0.884929   -0.710596
H     -0.082997   -1.002306    0.598096
H      3.127621   -0.156065    1.545797
H      4.962461    0.441359   -0.809099
H      3.418101   -2.153786   -0.440300
H      2.799505    0.169228   -2.325773
H      1.625725   -0.906005    0.288524
H     -2.591348    1.036245   -3.198492
H      2.983516    3.154010    1.740581
H      4.937293   -1.043482    1.566933
H      4.103086   -2.361959   -2.637282
H      1.476066   -2.337349   -1.813857
