53

C     -4.430383    2.365170   -0.654465
C     -4.373352    1.222580    0.375931
C      3.876547    1.954181   -0.138755
C      2.766904    1.117371   -0.232213
C      1.908110   -2.404861   -0.000404
C     -3.443708   -1.656109    0.983806
C      3.167460   -2.904029    0.208197
C     -2.958118   -2.052393   -0.406147
C     -1.226360   -0.606749    1.379084
C      5.200763   -0.006767    0.185242
C     -2.575013    0.149700   -0.988295
C     -2.983775    0.684968    0.361809
C     -2.726828   -0.405001    1.381276
C      5.111289    1.356120    0.074705
C      2.809238   -0.248035   -0.127139
C      1.677581   -1.025856   -0.183262
C      4.082218   -0.808008    0.089599
C     -0.834583   -1.179675    0.060477
C      0.378007   -0.503637   -0.551848
C      6.264981    2.268940    0.192731
F      5.977147    3.404056   -0.578054
F      7.458894    1.724035   -0.156267
F      6.242708    2.750827    1.509278
N      4.230211   -2.117561    0.250912
N     -1.920885   -1.138431   -0.882564
O      0.176040    0.762545   -0.937315
Cl     0.688951    0.000000    0.000000
Cl     0.684449    0.000000    0.000000
H     -4.563661    3.329339   -0.110802
H     -3.467860    2.442388   -1.196902
H     -5.217738    2.204285   -1.397157
H     -4.647116    1.590014    1.364143
H     -5.043870    0.426428   -0.024858
H      3.738391    3.029553   -0.234753
H      1.826262    1.598869   -0.369424
H      1.056984   -3.086304   -0.036612
H     -3.291328   -2.476128    1.716311
H     -4.524839   -1.450573    0.966503
H      3.280646   -3.963114    0.336104
H     -2.642456   -3.090184   -0.387873
H     -3.818330   -1.956450   -1.129831
H     -0.808074    0.401161    1.577172
H     -0.968390   -1.282545    2.188403
H      6.184716   -0.439049    0.353541
H     -3.525386   -0.059193   -1.553545
H     -2.056748    0.911365   -1.543762
H     -2.302186    1.533609    0.683614
H     -3.009235   -0.037132    2.382061
H     -0.595409   -2.239507    0.200943
H      0.292355   -1.045843   -1.616557
H      0.248180    0.955632   -1.914269
H     -0.688951    0.000000    0.000000
H     -0.684449    0.000000    0.000000
