85

C     -5.948462   -0.900147    1.181225
C      4.020847    0.901502    4.169410
C      0.885552   -5.793058   -1.138834
C      5.585300    0.712708   -2.872357
C      1.563561   -1.471256   -3.462613
C      1.867259    3.600388    1.525764
C      2.482553    2.824422   -0.604475
C     -4.746478    2.194030   -0.428193
C      0.570990    3.909008    1.029043
C      1.175457    3.142126   -1.077128
C     -4.603666    3.523933   -0.165805
C     -4.369734   -3.636476   -0.392215
C      2.258232   -0.818662    2.410318
C     -5.373276   -2.553513   -0.458704
C      2.080237    0.573934    2.931388
C      4.174457    2.586439    1.207846
C     -4.174598   -0.071359   -0.972706
C     -2.417627    1.854235   -0.970931
C     -2.015063   -4.093138   -0.587654
C     -1.217963   -1.517270   -0.015315
C      4.285681    0.347399   -0.442441
C      2.826166    3.051205    0.702319
C     -3.682547    1.346789   -0.825994
C     -2.940851   -3.112136   -0.315382
C      0.223716    3.679224   -0.259939
C      2.574513   -0.730713    0.946369
C     -2.584682   -1.795033   -0.020222
C      3.643277    0.173149    0.769954
C     -3.751703   -0.930259    0.204713
C      4.111862    1.160170    1.792819
C     -3.325346    4.008072   -0.313193
C     -2.248667    3.198091   -0.706644
C     -0.666819   -3.798072   -0.577519
C     -0.248445   -2.419054   -0.272492
C      3.903104   -0.354496   -1.550908
C      2.174239   -1.428387   -0.142031
C      2.858813   -1.217768   -1.361554
N     -4.938388   -1.680540    0.576029
N      3.303673    1.291885    2.963246
O     -3.180706    5.387801   -0.033599
O      0.184950   -4.699280   -0.830498
O      4.519206   -0.211208   -2.787397
O      2.516222   -1.916322   -2.547395
O     -1.053398    3.957622   -0.775278
O      1.141176   -2.374172   -0.335133
H     -5.504346    0.052180    1.613084
H     -6.676072   -0.556705    0.430196
H     -6.488178   -1.407259    2.008400
H      5.012203    0.471195    3.842255
H      3.485147    0.130162    4.733089
H      4.215354    1.802595    4.810715
H      0.352231   -6.356509   -1.966891
H      1.029161   -6.492844   -0.267810
H      1.925790   -5.548662   -1.519281
H      5.970163    0.802445   -3.909689
H      6.422236    0.479467   -2.186107
H      5.224345    1.720660   -2.527983
H      1.098334   -0.516102   -3.124682
H      1.985496   -1.366865   -4.481219
H      0.764842   -2.251267   -3.498480
H      1.878871    3.884585    2.618794
H      3.037040    2.430402   -1.507096
H     -5.769074    1.782032   -0.312642
H     -0.056478    4.363152    1.854944
H      1.079310    2.894687   -2.175281
H     -5.424873    4.158105    0.137957
H     -4.471627   -4.269481   -1.308507
H     -4.549460   -4.323048    0.461944
H      1.471525   -1.406990    2.787985
H      3.187506   -1.199030    2.959158
H     -6.351856   -2.972519   -0.141156
H     -5.446363   -2.074257   -1.437517
H      1.260991    1.044319    2.388192
H      1.696843    0.472790    3.998661
H      5.028140    2.587395    0.543702
H      4.581351    3.192604    2.079142
H     -3.948097   -0.587213   -1.916467
H     -5.314393   -0.095739   -1.010510
H     -1.529247    1.233215   -1.328658
H     -2.342949   -5.130043   -0.816071
H     -0.847186   -0.450479    0.210259
H      5.133080    1.033596   -0.592959
H     -3.746942   -0.257077    1.111461
H      5.103410    0.845955    2.105185
H     -3.918853    5.978734    0.167992
