36

C      1.127285   -0.372402    1.298107
C     -1.064235    1.816490    0.895151
C     -3.858230    0.717750    0.286222
C      3.321660   -1.125076   -0.354841
C      1.961016   -0.958924   -0.912702
C     -1.079641   -1.245684   -1.236515
C     -2.566256   -0.957566   -1.067629
C      3.930447    0.185332    0.060421
C      0.923014   -0.452564    0.006082
C     -1.364564    0.459932    0.352761
C     -0.360203   -0.043663   -0.640509
C     -2.631819    0.459013   -0.513248
O      5.210862   -0.061809    0.601706
O     -2.415891    1.361290   -1.540425
H      2.063927   -0.679182    1.721862
H      0.367792    0.001549    1.975687
H      0.011495    2.051561    0.776519
H     -1.691921    2.624032    0.447925
H     -1.251467    1.783419    2.007811
H     -4.742060    0.158777   -0.140309
H     -3.753666    0.514707    1.369652
H     -4.164824    1.800882    0.194197
H      3.975620   -1.510526   -1.192271
H      3.402890   -1.902677    0.431887
H      2.045145   -0.254428   -1.797006
H      1.572394   -1.900955   -1.375652
H     -0.874086   -1.327465   -2.315143
H     -0.777052   -2.175369   -0.725636
H     -2.925397   -1.629504   -0.260196
H     -3.130292   -1.068890   -1.999013
H      4.118463    0.724510   -0.934610
H      3.320322    0.857340    0.639435
H     -1.554821   -0.304693    1.140525
H     -0.177897    0.702381   -1.412457
H      5.742545   -0.525316   -0.088513
H     -2.710556    2.277727   -1.301688
