36

C      1.601411   -2.000874   -1.225086
C     -1.415084   -2.037046    0.994854
C     -3.180175    0.515574    1.295036
C      2.210685    1.213391    0.145925
C      2.047938   -0.250371    0.371292
C     -0.621247    0.618950   -1.433493
C     -1.697391    1.301675   -0.567782
C      3.236642    1.779268    1.146777
C      1.129882   -0.956185   -0.536700
C     -1.083858   -0.632997    0.537375
C     -0.305382   -0.640980   -0.744492
C     -2.343589    0.093611    0.139246
O      4.465504    1.161120    0.983847
O     -3.021003   -0.682209   -0.777691
H      2.631532   -2.280558   -1.085642
H      1.009991   -2.586169   -1.917294
H     -1.782384   -2.579221    0.076912
H     -2.203672   -1.981977    1.753013
H     -0.489775   -2.512345    1.322599
H     -2.618942    0.757185    2.198030
H     -3.843236    1.354071    0.959059
H     -3.865657   -0.327245    1.546966
H      2.520275    1.519575   -0.840732
H      1.248287    1.755022    0.396450
H      1.791580   -0.456624    1.454004
H      3.084963   -0.695706    0.263904
H     -1.070471    0.427792   -2.459494
H      0.233168    1.279028   -1.593457
H     -2.391974    1.810103   -1.235726
H     -1.250856    1.974794    0.172347
H      3.307853    2.865948    1.066205
H      2.869885    1.533826    2.159604
H     -0.514891   -0.072937    1.305924
H     -0.787828   -1.494945   -1.345124
H      4.507555    0.279540    1.432507
H     -3.409739   -0.052088   -1.452072
