27

C      3.305946   -0.168571    0.461431
C     -0.467381    2.462575   -0.193704
C      2.155006   -0.499143   -0.416859
C     -2.465763   -0.710799    0.265201
C     -1.408892   -1.653743   -0.172979
C     -2.032005    0.703271    0.436663
C      0.851765   -0.691094    0.325037
C     -0.189652   -1.020094   -0.754249
C     -0.615868    0.961537   -0.019897
O      0.339506    0.481354    0.839541
O     -0.451723    0.284513   -1.231545
H      4.234823   -0.609089   -0.006687
H      3.223210   -0.479136    1.500627
H      3.475260    0.940476    0.397803
H     -1.361749    2.830343   -0.756484
H      0.486153    2.745999   -0.666900
H     -0.572938    2.898048    0.828912
H      1.987435    0.220481   -1.227298
H      2.366202   -1.489751   -0.916790
H     -2.843552   -1.063749    1.268692
H     -3.368392   -0.811963   -0.404971
H     -1.820091   -2.355354   -0.957031
H     -1.071554   -2.349706    0.649462
H     -2.232501    1.101878    1.456262
H     -2.683761    1.330831   -0.241855
H      0.890599   -1.454861    1.101162
H      0.269917   -1.604256   -1.563544
