56

C     -5.239754   -4.292568    0.218913
C      6.327076   -1.484811   -0.136022
C     -2.589711   -2.364502   -4.174050
C      4.289033    1.341739    4.202791
C     -3.615854   -0.258909    0.282055
C      2.763542    0.729729   -0.480552
C     -4.144276   -1.531954    0.298820
C      3.930585    0.005403   -0.362607
C     -2.327397    1.535763   -0.936093
C     -2.851742   -0.670652   -1.918187
C      2.931281    1.403186    1.780644
C     -0.946459    1.705997    1.835853
C     -0.467921    3.092421   -0.903608
C     -2.962317    0.184956   -0.828722
C      2.240874    1.437135    0.572498
C     -0.894354    1.606352   -0.705267
C     -0.258555    1.342089    0.580955
C     -4.029675   -2.373593   -0.784849
C      4.632678   -0.044053    0.822977
C     -3.368307   -1.938844   -1.926296
C      4.096031    0.676768    1.888205
C      0.989714    2.237866    0.496584
O     -0.068841    1.325088    2.891657
O     -4.545919   -3.662097   -0.811660
O      5.815869   -0.766586    0.974259
O     -3.260736   -2.798651   -3.012292
O      4.810105    0.626997    3.096315
O      0.891100    2.987526   -0.630637
H     -4.892278   -3.909318    1.192085
H     -5.052966   -5.404967    0.234808
H     -6.320353   -4.100324    0.065410
H      6.730072   -0.705181   -0.846870
H      7.247963   -2.043467    0.181288
H      5.592112   -2.086595   -0.665428
H     -2.530553   -3.135445   -4.950915
H     -3.069035   -1.470990   -4.639089
H     -1.542332   -2.066336   -3.902800
H      3.351024    0.896341    4.597679
H      5.007318    1.320541    5.057449
H      4.097038    2.389176    3.960737
H     -3.751005    0.373577    1.156437
H      2.220380    0.761307   -1.418538
H     -4.674240   -1.895156    1.199490
H      4.331781   -0.554787   -1.221449
H     -2.509360    1.846842   -2.010725
H     -2.953870    2.254234   -0.362431
H     -2.325974   -0.332182   -2.831864
H      2.597537    1.928907    2.663914
H     -1.095188    2.825875    1.880313
H     -1.885887    1.248360    2.080417
H     -0.692659    3.428400   -1.916834
H     -0.990020    3.648698   -0.105843
H     -0.362321    1.083625   -1.537973
H      0.130797    0.293859    0.604304
H      0.972217    2.948347    1.376366
H      0.223730    0.404865    2.697208
