56

C     -1.646045    3.493809    2.143717
C     -2.748207    3.128403   -0.089366
C     -4.788750   -0.108957    1.110390
C     -4.969917   -0.398175   -1.282876
C      6.552594    0.145533   -1.175343
C      6.694756    1.379113   -0.588447
C      5.377856   -0.599746   -1.027978
C      5.627804    1.852245    0.153939
C     -0.614071    2.007522    0.581414
C     -0.449951    1.267413   -0.679358
C     -2.931436   -2.895636    0.116761
C     -4.036441   -2.170030    0.116555
C      3.191900   -2.278420   -0.761227
C     -1.621380    2.804239    0.792662
C      4.321573   -0.115019   -0.284064
C     -1.636320   -2.269761   -0.089651
C     -0.449828   -0.193996   -0.488666
C      4.458137    1.120258    0.306318
C      1.980290   -3.015222   -0.321920
C      3.100787   -0.902139   -0.137793
C      0.717291   -2.293834   -0.305247
C     -0.457806   -2.963368   -0.102814
C     -1.621111   -0.888486   -0.283342
C      0.733677   -0.901177   -0.500283
C     -4.063030   -0.700828   -0.087387
O      3.374002    1.584518    1.052063
O      1.994895   -4.220686    0.033074
O     -0.425786   -4.310802    0.081667
O      1.949791   -0.268081   -0.700184
O     -2.787389   -0.159203   -0.276753
H     -2.310631    4.368542    2.095312
H     -0.618824    3.898317    2.370000
H     -1.873466    2.794897    2.958628
H     -2.739721    2.759607   -1.099694
H     -3.687703    2.731713    0.385514
H     -2.863699    4.237138   -0.089383
H     -5.341760    0.819441    0.829367
H     -5.546911   -0.845231    1.440805
H     -4.118085    0.137723    1.941412
H     -4.337012   -0.313683   -2.177764
H     -5.643330   -1.266905   -1.406352
H     -5.561625    0.544472   -1.112729
H      7.382897   -0.234914   -1.761092
H      7.594983    1.990964   -0.680599
H      5.301169   -1.564309   -1.506962
H      5.718844    2.824380    0.627378
H      0.140401    1.894323    1.398394
H     -1.262279    1.535424   -1.370023
H      0.485332    1.628654   -1.163071
H     -2.986016   -3.960607    0.270290
H     -5.011827   -2.642481    0.272787
H      3.289417   -2.237337   -1.856916
H      4.121431   -2.754759   -0.373398
H      2.899316   -1.087638    0.949137
H      3.372833    2.475805    1.520083
H     -1.231617   -4.863021    0.233018
