49

C     -3.355171   -2.952024   -0.414485
C      5.251110    0.603102   -0.606962
C     -1.177844    4.498531    2.167906
C      1.868759    2.986633   -0.718232
C     -3.406034   -0.017203    1.225934
C     -3.762035   -0.671916   -0.079815
C     -0.538375   -2.360402   -0.662176
C      1.839916   -2.743926   -1.131851
C     -1.802438    1.872842    1.415340
C      2.525907   -0.171930   -0.406603
C     -2.055550    0.579309    1.028249
C      0.845405   -1.867155   -0.682815
C      1.218511   -0.586183   -0.326759
C     -1.515025   -1.593149    0.112785
C      3.140559   -2.352087   -1.219480
C      3.486084   -1.059019   -0.855395
C     -0.550477    2.367164    1.221662
C     -1.101359   -0.239442    0.456626
C      0.184255    0.270434    0.262548
C      0.445288    1.551861    0.636289
N     -2.813408   -1.595495   -0.573549
O      4.124117   -3.233657   -1.669502
O     -2.607797   -1.379110   -1.894996
O      4.829919   -0.709720   -0.964915
O     -0.208271    3.653216    1.579532
O      1.688086    2.149833    0.464554
H     -2.876641   -3.597024   -1.157653
H     -3.099948   -3.245750    0.627437
H     -4.453714   -2.917687   -0.573167
H      4.612679    1.382751   -1.072640
H      5.215704    0.717080    0.483504
H      6.309549    0.727494   -0.934199
H     -1.472506    4.039719    3.148481
H     -2.067506    4.567754    1.498325
H     -0.792538    5.512561    2.319473
H      1.500293    2.460009   -1.603919
H      2.953834    3.185050   -0.813072
H      1.338459    3.938980   -0.571288
H     -4.139535    0.765042    1.438052
H     -3.406734   -0.768547    2.037942
H     -4.763046   -1.166307    0.087301
H     -3.975719    0.124595   -0.829565
H     -0.928210   -2.482309   -1.724085
H     -0.498581   -3.409454   -0.249124
H      1.539279   -3.750909   -1.409138
H     -2.605805    2.474285    1.868448
H      2.883269    0.758426   -0.110453
H     -1.683559   -2.143078    1.106830
H      3.856846   -4.173190   -1.931383
