41

C     -0.915028    2.435741   -0.209096
C      4.127796    0.941456    0.111611
C     -1.284557   -2.334797    0.312263
C     -2.932523    1.132055    0.021379
C     -3.232172   -0.250149   -0.575656
C      1.656118   -1.221040   -0.389347
C      0.359992   -1.336626   -1.173170
C     -1.423646    1.291362    0.131092
C      2.914896    0.542137    0.896728
C      1.721808    0.229037    0.020381
C     -1.974503   -0.674853   -1.315706
C      0.639167    0.360505    1.087517
C      2.341064    1.674141    1.678554
C     -0.855505   -1.043510   -0.360308
C     -0.709413    0.084076    0.620814
O     -2.230564   -1.684695   -2.235044
O      2.964798    2.581232    2.275140
O     -1.464489   -0.323278    1.757501
O      0.946069    1.581738    1.654519
H     -1.607434    3.227482   -0.558068
H      0.145611    2.665432   -0.176855
H      5.014701    0.797790    0.773355
H      4.082495    1.973259   -0.273435
H      4.234288    0.229769   -0.733419
H     -1.798291   -3.013141   -0.392235
H     -1.892632   -2.135988    1.232180
H     -0.362738   -2.851048    0.684514
H     -3.418676    1.268863    1.004075
H     -3.319964    1.894507   -0.678565
H     -4.032350   -0.168401   -1.333482
H     -3.538432   -0.970739    0.192193
H      2.479533   -1.403403   -1.092055
H      1.673200   -1.852480    0.497728
H      0.339370   -2.366794   -1.582606
H      0.468364   -0.654475   -2.041460
H      3.113031   -0.275107    1.588364
H      1.618425    0.921214   -0.808402
H     -1.617068    0.254310   -1.847399
H      0.958771   -0.418603    1.860613
H     -2.001304   -1.357587   -3.140236
H     -1.188210    0.250607    2.516021
