43

C     -2.586530   -3.008140   -0.093947
C      3.844623   -1.412942    0.619544
C     -5.509840    0.474257   -0.402793
C     -4.871048    1.689931   -0.392823
C     -4.764958   -0.679229   -0.316263
C     -3.492643    1.771026   -0.297333
C      0.982570   -0.454451   -0.978294
C      0.240343   -1.305742    0.059943
C      2.128028    1.332918    0.420418
C      5.509659    1.512071   -0.836182
C     -2.400484   -1.539069   -0.122628
C      4.252428   -0.069735    0.065613
C      1.073608    0.959953   -0.554061
C     -3.374584   -0.585977   -0.220216
C      3.517084    1.082850    0.013115
C     -1.200956   -0.875201   -0.056277
C     -2.739227    0.624993   -0.210437
C     -0.295387    1.356670   -0.057970
N      5.464950    0.226938   -0.461733
N      4.320547    2.034567   -0.545949
N     -1.389925    0.454656   -0.108982
O     -0.499832    2.520119    0.421948
Cl     0.688844    0.000000    0.000000
H     -3.356407   -3.321404   -0.858360
H     -1.627942   -3.525722   -0.303893
H     -2.915320   -3.332930    0.913523
H      3.659101   -2.059810   -0.250512
H      2.910505   -1.290858    1.183905
H      4.686824   -1.764101    1.253687
H     -6.577292    0.387889   -0.476213
H     -5.456751    2.612580   -0.460910
H     -5.209606   -1.674151   -0.319285
H     -2.979004    2.720721   -0.288791
H      1.883328   -0.926761   -1.363205
H      0.273317   -0.459653   -1.875405
H      0.348060   -2.365174   -0.164073
H      0.552075   -1.004800    1.079331
H      1.968935    2.433066    0.650038
H      1.957963    0.843399    1.423686
H      6.383192    2.004216   -1.293613
H      1.228286    1.582844   -1.476038
H      4.062311    3.030188   -0.728257
H     -0.688844    0.000000    0.000000
