87

C      5.365445   -0.935950   -1.534425
C     -6.233902    1.645387    1.570900
C     12.123877   -1.721668   -0.644221
C    -11.446504   -1.987335   -0.709496
C     -7.610418    0.330546   -3.949519
C      3.513759    2.787942    1.109355
C      2.875239    0.550589    0.632895
C     -2.562953   -0.932904    1.722704
C      2.143468    3.108438    1.353151
C      1.556021    0.815798    0.856549
C     -1.508359   -0.837310    2.581527
C      7.163982    0.469395   -3.193482
C     -7.104593   -1.409963    2.303151
C      5.701429    0.858642   -3.024099
C     -6.197998   -0.335931    2.838013
C      5.281804    1.083421    0.633099
C     -4.059904   -0.178429   -0.130654
C     -2.049843    1.141132    0.723565
C      9.103728   -0.333440   -1.901732
C     -8.744551   -1.413110    0.392592
C      8.019738    0.446697    0.403134
C     -6.917379   -0.295683   -1.198255
C      3.882988    1.520327    0.756673
C     -2.878888    0.011758    0.788830
C      7.840121    0.286342   -1.921661
C     -7.516204   -1.163076    0.929750
C      1.228379    2.101718    1.217614
C      7.285538    0.691206   -0.683888
C     -6.561755   -0.562299    0.031426
C      5.887460    1.238738   -0.713162
C     -5.257702   -0.355238    0.693950
C     -0.682340    0.269189    2.530601
C      9.261121   -0.160037    0.427847
C      9.816927   -0.573287   -0.816252
C     -0.987075    1.244136    1.574619
C     -9.115906   -1.138793   -0.883921
C     -8.184830   -0.542506   -1.767723
N      5.164888    0.489521   -1.731559
N     -5.477745    0.436963    1.848753
O      0.374489    0.425270    3.372095
O      9.955616   -0.351766    1.584762
O     11.042333   -1.183187   -0.723913
O    -10.368540   -1.414983   -1.364302
O     -8.516755   -0.250250   -3.022008
O     -0.149762    2.377011    1.470455
H      5.773192   -1.084424   -0.496839
H      6.084374   -1.367223   -2.256736
H      4.405661   -1.496928   -1.640880
H     -6.527175    2.088415    2.571600
H     -7.191153    1.441428    1.042293
H     -5.700591    2.390102    0.984604
H     13.006355   -1.179150   -1.149113
H     12.621812   -1.851665    0.419409
H     12.233275   -2.828478   -1.034327
H    -12.218193   -1.242372   -0.374722
H    -12.008033   -2.673581   -1.413493
H    -11.134442   -2.609693    0.179279
H     -6.686453   -0.279020   -4.054312
H     -7.305211    1.318075   -3.535133
H     -8.139752    0.455727   -4.949162
H      4.221344    3.586010    1.224426
H      3.231005   -0.443988    0.337308
H     -3.204989   -1.813837    1.765045
H      1.894599    4.135598    1.624214
H      0.869854   -0.002378    0.716919
H     -1.268947   -1.577902    3.321702
H      7.245280   -0.452714   -3.826436
H      7.663241    1.260807   -3.786322
H     -7.981708   -1.567891    2.995415
H     -6.534462   -2.390474    2.354729
H      5.065717    0.388160   -3.801857
H      5.625620    1.971031   -3.148124
H     -5.448006   -0.788189    3.532049
H     -6.825896    0.352982    3.465539
H      5.347052    0.047085    1.045867
H      5.857667    1.771956    1.347516
H     -4.062704    0.771347   -0.739260
H     -3.871330   -0.979439   -0.827429
H     -2.295231    1.878022   -0.010954
H      9.505776   -0.642622   -2.899064
H     -9.511772   -1.869820    1.061897
H      7.590854    0.749689    1.376581
H     -6.198699    0.185642   -1.926701
H      5.921236    2.287861   -1.020414
H     -5.069169   -1.431799    1.163739
H      0.995560    1.173250    3.474618
H      9.569993   -0.065215    2.452790
