33

C      4.284107    1.084609    0.355619
C     -5.191041   -1.371241   -0.024823
C     -4.685989   -0.379620   -0.838447
C     -4.394012   -1.811322    1.016788
C      0.675033    1.908340   -1.921211
C     -3.413127    0.169690   -0.627001
C     -3.161641   -1.291582    1.236979
C      1.920821    1.409952   -1.652772
C     -0.421511    1.534205   -1.130746
C      1.050825    0.192444    0.138429
C      3.492155    0.009127   -0.405375
C     -2.640986   -0.275398    0.404237
C      2.114653    0.530681   -0.597287
C     -0.269365    0.682577   -0.101174
C     -1.307919    0.144264    0.711189
C      3.572392   -1.287759    0.262443
O     -0.956576    0.001203    1.967075
O      4.055543   -2.289780   -0.322883
O      3.127767   -1.487815    1.562568
H      5.104593    0.568836    0.877425
H      4.778100    1.795076   -0.372573
H      3.623381    1.681700    1.007861
H     -6.172158   -1.808885   -0.173976
H     -5.270537   -0.006517   -1.665671
H     -4.774766   -2.601808    1.681197
H      0.512377    2.597789   -2.740015
H     -3.096408    0.946698   -1.321865
H     -2.564028   -1.678097    2.084268
H      2.755931    1.709117   -2.278467
H     -1.370451    2.013866   -1.396027
H      1.166936   -0.478998    0.969149
H      3.977300   -0.006466   -1.411540
H      3.478603   -2.204885    2.180230
