41

C     -0.103765    2.152845   -1.597313
C      4.153576    0.562703    0.448979
C     -1.336934   -1.903227    0.750047
C     -2.368063    1.355527   -1.513543
C     -3.178400    0.502888   -0.600245
C      1.058855   -0.421194    1.774403
C     -0.368521    0.078387    1.799036
C     -0.910091    1.147051   -1.274455
C      3.052765   -0.463420    0.206780
C      1.680042    0.124889    0.510985
C     -2.522103    0.277019    0.739029
C      0.896721   -0.458809   -0.615756
C      2.988277   -0.615812   -1.289695
C     -1.176418   -0.381338    0.616837
C     -0.518187   -0.138049   -0.720925
O     -3.345185   -0.529834    1.503574
O      3.963627   -1.057399   -1.978882
O     -1.090859   -1.131924   -1.573881
O      1.731091   -0.200935   -1.712852
H      0.980462    2.127878   -1.472893
H     -0.506454    3.079826   -2.015693
H      4.399914    0.661134    1.521387
H      5.058416    0.258862   -0.117280
H      3.814154    1.522087   -0.000425
H     -1.037756   -2.432809   -0.157290
H     -2.397577   -2.159249    0.956454
H     -0.720679   -2.290117    1.579670
H     -2.649246    2.424833   -1.488638
H     -2.555761    1.029534   -2.577525
H     -4.142861    1.015290   -0.403370
H     -3.431920   -0.457314   -1.107154
H      1.572575   -0.012096    2.648198
H      1.148535   -1.504825    1.790663
H     -0.840834   -0.363726    2.700821
H     -0.369361    1.168754    1.859952
H      3.233524   -1.411687    0.714793
H      1.816593    1.200395    0.524059
H     -2.470811    1.265637    1.245320
H      0.969095   -1.583869   -0.469879
H     -4.054285   -0.944445    0.984373
H     -0.422152   -1.493460   -2.187667
