49

C      2.036592    4.319824   -0.323737
C      1.995305    2.884829    0.252341
C     -5.241850   -0.080892   -1.359433
C      4.826452   -3.235583   -0.717819
C     -4.004778    0.515342   -1.447820
C      4.356673   -1.990146   -0.624942
C     -5.489507   -0.948884   -0.344436
C     -0.884033   -0.853172    0.740187
C     -2.231531   -0.922930    1.481689
C      2.705938   -0.400534    0.596842
C      0.950778    2.091157   -0.496120
C      1.503977   -0.305931   -0.282880
C      4.359966   -4.222807    0.095755
C     -1.682000    0.955298   -0.712571
C     -2.984458    0.272049   -0.541444
C     -0.676636    0.559077    0.311599
C      3.394497   -1.718329    0.304568
C     -3.275924   -0.616227    0.474996
C     -4.502772   -1.237440    0.602546
N      0.689449    0.790561   -0.138029
O     -4.823701   -2.127939    1.606776
S      3.128508   -3.234436    1.078038
Cl     0.684445    0.000000    0.000000
H      3.074343    4.688936   -0.296786
H      1.453429    4.944649    0.399678
H      1.601449    4.328317   -1.327246
H      1.821406    2.933752    1.342456
H      3.042336    2.519088    0.050805
H     -5.977847    0.176096   -2.120523
H      5.624834   -3.532774   -1.470878
H     -3.804924    1.204791   -2.255542
H      4.720640   -1.149826   -1.287909
H     -6.458086   -1.419815   -0.262875
H     -0.074024   -1.223289    1.409591
H     -1.037054   -1.490452   -0.153658
H     -2.235118   -0.127650    2.232869
H     -2.324590   -1.942046    1.922296
H      2.468544   -0.429817    1.672935
H      3.479380    0.342984    0.370858
H      1.278884    2.120825   -1.585505
H      0.020214    2.755884   -0.472935
H      1.918842   -0.290047   -1.363579
H      0.970728   -1.296449   -0.284152
H      4.531478   -5.235474    0.239167
H     -1.904202    2.062526   -0.677576
H     -1.277110    0.786843   -1.735871
H     -0.840081    1.207897    1.219487
H     -4.224415   -2.427831    2.348966
H     -0.684445    0.000000    0.000000
