58

C      6.896134    0.519617    2.556475
C     -3.645464    0.507115   -2.071030
C      5.977706   -0.168535    1.570071
C      6.134824    0.519089    0.223692
C      5.244510   -0.115003   -0.819454
C      3.779056   -0.037466   -0.447883
C      3.289805    1.357570   -0.283741
C      1.836478    1.353244    0.103727
C     -6.791735    1.437936    1.199834
C     -6.910718    0.075861    1.103861
C     -5.516786    1.972378    1.206836
C      1.003596    0.677289   -0.959446
C     -5.804984   -0.773777    1.014544
C     -4.419564    1.134994    1.118620
C     -0.465506    0.681745   -0.594823
C     -3.306439   -1.072344    0.930546
C     -0.980640   -1.421411   -1.869569
C     -4.540067   -0.232468    1.022292
C     -1.323246    0.030158   -1.623357
C     -2.973847   -1.219788   -0.521506
C     -1.712221   -2.073703   -0.701479
N     -2.686944   -0.053004   -1.228562
O     -0.920699   -2.034129    0.439550
H      7.055817   -0.108259    3.444697
H      6.384359    1.486195    2.822430
H      7.833340    0.798576    2.040188
H     -4.611628   -0.072692   -2.002771
H     -3.919060    1.561008   -1.889240
H     -3.331320    0.429520   -3.125654
H      6.233284   -1.250597    1.499005
H      4.944841   -0.115578    1.935048
H      7.175824    0.414557   -0.143105
H      5.932086    1.580537    0.380124
H      5.400770    0.316805   -1.821231
H      5.515855   -1.189704   -0.877188
H      3.576849   -0.689708    0.412592
H      3.250512   -0.494792   -1.337336
H      3.330445    1.913693   -1.267915
H      3.909010    1.973415    0.396916
H      1.721635    0.856656    1.093474
H      1.449562    2.395452    0.268974
H     -7.638271    2.102328    1.269212
H     -7.916077   -0.348753    1.098130
H     -5.364612    3.052022    1.281470
H      1.223668    1.041806   -1.961100
H      1.309438   -0.411199   -0.934742
H     -5.893941   -1.830579    0.940008
H     -3.402452    1.549851    1.123377
H     -0.766405    1.759511   -0.556011
H     -0.613046    0.282656    0.408609
H     -3.502294   -2.065160    1.384934
H     -2.542765   -0.585066    1.528228
H     -1.546038   -1.720281   -2.794596
H      0.073745   -1.655170   -1.922394
H     -1.267558    0.628046   -2.560970
H     -3.775930   -1.788971   -1.047497
H     -1.947800   -3.110307   -0.951629
H     -0.445092   -2.898731    0.496768
