33

C      3.442469   -1.515327   -0.325827
C     -4.124725    0.696575    0.097533
C     -2.498684    0.419798   -2.229705
C      2.197533    0.989136   -0.364667
C      1.938112   -1.421062   -0.340491
C     -0.042246    0.132029    2.832234
C      1.257414   -0.050367    2.911568
C     -2.649731    0.476228    0.222191
C     -1.834056    0.338167   -0.880339
C     -0.657253    0.193820    1.492412
C      2.095781   -0.189839    1.744446
C     -2.054437    0.403686    1.456898
C      0.100266    0.063890    0.372791
C      1.540382   -0.154397    0.400850
O      3.358552   -0.346893    1.940784
O     -2.707000    0.516601    2.517097
O     -0.554314    0.146659   -0.782380
H      3.940133   -0.525671   -0.301777
H      3.825233   -2.131870    0.531880
H      3.822910   -1.987365   -1.284233
H     -4.648115   -0.190039   -0.301642
H     -4.352353    1.592008   -0.531290
H     -4.530118    0.897382    1.093530
H     -3.248516    1.232120   -2.208644
H     -2.964352   -0.553404   -2.431889
H     -1.759915    0.681182   -3.011578
H      2.298619    0.698402   -1.412519
H      1.500662    1.867348   -0.339915
H      3.122656    1.275115    0.149119
H      1.509761   -2.318216    0.129921
H      1.604857   -1.371760   -1.381955
H     -0.662609    0.236250    3.705355
H      1.733083   -0.100185    3.888145
