46

C      0.256262   -1.979018   -1.111406
C      1.883476    1.675405    0.770135
C     -5.349029    0.991708    0.414857
C     -4.336873    0.152064   -1.715149
C      4.852303    1.397839   -0.068288
C     -0.583806   -0.159064    0.229165
C     -1.934927   -0.598464   -0.331463
C      2.887623   -1.683568   -0.514343
C      4.220168   -1.021237   -0.246592
C      0.521563   -1.007531   -0.255720
C      2.483664    0.562147   -0.067886
C      1.881552   -0.789845    0.207807
C     -2.950056    0.378351    0.280354
C     -4.346742    0.046708   -0.202375
C      3.929350    0.303322    0.397503
O     -2.842480    0.306268    1.659194
O     -4.631671   -1.251290    0.212773
O      3.895912    0.160438    1.764970
H      0.984857   -2.663559   -1.534425
H     -0.778870   -2.143837   -1.448132
H      1.257518    1.247949    1.548499
H      1.397960    2.397398    0.086249
H      2.759072    2.225758    1.226766
H     -4.961108    1.462513    1.354856
H     -5.487688    1.823507   -0.322579
H     -6.308261    0.498512    0.652850
H     -5.378969    0.289753   -2.080561
H     -3.862762   -0.727964   -2.165784
H     -3.728344    1.043155   -2.013255
H      4.740705    2.245831    0.643144
H      5.888912    1.025622    0.057134
H      4.615095    1.746790   -1.072236
H     -0.430728    0.924313   -0.063272
H     -0.649789   -0.270567    1.329401
H     -1.972142   -0.519683   -1.428148
H     -2.198498   -1.616663    0.005095
H      2.820112   -2.721820   -0.151060
H      2.709032   -1.656257   -1.630560
H      4.754989   -0.795929   -1.213761
H      4.845372   -1.669889    0.404147
H      2.524548    0.809388   -1.142315
H      2.027428   -0.982218    1.297939
H     -2.616588    1.387703   -0.038388
H     -2.709540    1.196059    2.083115
H     -4.397772   -1.331180    1.171575
H      4.319168   -0.708917    2.038622
