33

C      1.962432   -0.862165    1.756065
C     -0.910527   -2.144657   -0.140475
C     -2.606211    0.605484   -1.593798
C     -0.589896    1.380332    0.756164
C      2.091987    0.386093   -0.308470
C     -2.084296    1.119221    0.743162
C      3.585800    0.212262   -0.205186
C      1.329445   -0.209186    0.806394
C     -0.836610   -0.660003   -0.336674
C     -0.114710   -0.069378    0.846470
C     -2.193555    0.009027   -0.274063
O      4.119141    0.805522    0.933261
O     -3.115493   -0.968339    0.136413
H      3.037082   -1.016904    1.808304
H      1.344535   -1.289081    2.569774
H      0.070579   -2.564837   -0.496853
H     -0.977003   -2.351688    0.937879
H     -1.728761   -2.602106   -0.724760
H     -3.732784    0.556459   -1.640856
H     -2.236647    0.039942   -2.465226
H     -2.368295    1.691707   -1.669965
H     -0.316688    1.816338   -0.239788
H     -0.259488    1.977355    1.604267
H      1.906290    1.486591   -0.275327
H      1.757559   -0.027872   -1.299414
H     -2.331590    0.690679    1.741565
H     -2.678843    2.001118    0.492068
H      3.845869   -0.878673   -0.123384
H      4.093823    0.581731   -1.108237
H     -0.308189   -0.368224   -1.274579
H     -0.588695   -0.489266    1.756661
H      4.618006    1.622625    0.713972
H     -3.784267   -0.480105    0.698273
