33

C     -2.040893   -1.779556    1.006607
C      1.172312   -1.702918   -0.875433
C      3.247925    0.441597   -0.317457
C     -0.134361    1.163617    1.064723
C     -2.263310   -0.474881   -0.984740
C      1.252430    1.663611    0.598970
C     -2.723165    0.930254   -1.135956
C     -1.499410   -0.810255    0.227155
C      0.865896   -0.351245   -0.400703
C     -0.236560   -0.259670    0.631260
C      1.964921    0.311148    0.402659
O     -3.527882    1.369232   -0.101630
O      2.078765   -0.235342    1.683812
H     -2.962444   -2.250745    0.733417
H     -1.557592   -2.107543    1.930676
H      2.029386   -2.169695   -0.349658
H      0.319630   -2.411676   -0.881134
H      1.497106   -1.637766   -1.955696
H      3.237730   -0.169124   -1.258300
H      3.536520    1.494308   -0.512226
H      4.060143    0.011768    0.305974
H     -0.098429    1.264500    2.186342
H     -0.928516    1.793643    0.651513
H     -3.202937   -1.110702   -1.070117
H     -1.660520   -0.824568   -1.861764
H      1.736376    2.278862    1.351762
H      1.130681    2.141013   -0.394952
H     -1.955226    1.669409   -1.364072
H     -3.385223    0.932918   -2.079316
H      0.592823    0.382283   -1.206067
H      0.142513   -0.856917    1.549384
H     -3.246207    0.896234    0.725952
H      2.557519    0.408206    2.264905
