23

C     -2.817146   -1.063719    0.260131
C      2.435640   -0.041533    1.103755
C      2.728591   -0.595272   -1.166756
C      1.065023    0.041673    0.922329
C      1.364364   -0.511681   -1.344000
C     -1.883739    0.157463    0.259618
C      3.290325   -0.359854    0.068879
C      0.497607   -0.191411   -0.305483
C     -2.680224    1.268171   -0.318089
O      4.654823   -0.428884    0.308961
O     -2.325905    1.757897   -1.409985
O     -3.807337    1.781289    0.315881
O     -0.832430   -0.135100   -0.586804
H     -3.375061   -1.035016   -0.719111
H     -3.512747   -1.042680    1.109111
H     -2.193186   -1.980044    0.211713
H      2.869815    0.145199    2.079381
H      3.406989   -0.848346   -1.989950
H      0.403598    0.291823    1.739611
H      0.949833   -0.705972   -2.344409
H     -1.587196    0.373164    1.306265
H      5.296336    0.323626    0.227924
H     -3.947973    2.799204    0.271026
