37

C     -0.389632   -3.048526   -0.667327
C      4.781508    1.435121   -0.353099
C      3.702828    2.023674    0.267824
C      4.709615    0.106992   -0.706115
C     -4.739016    0.546601    1.462763
C     -4.369820    1.812665    1.096846
C      2.534626    1.307880    0.549962
C      3.540290   -0.596127   -0.419849
C     -3.942298   -0.514322    1.106388
C     -3.194987    2.027443    0.368106
C      1.236815   -0.771932    0.492913
C      2.466243   -0.013317    0.197479
C     -2.786647   -0.288413    0.387883
C     -2.384257    0.973212    0.002569
C      0.231041   -0.708729   -0.641982
C     -0.204089    0.637189   -0.956597
C     -2.106581   -1.542203    0.123498
N     -1.248641    1.371971   -0.724086
N     -0.774869   -1.680197   -0.378927
O      0.736936    1.366044   -1.716342
O     -2.719261   -2.618431    0.347175
H     -0.258387   -3.101524   -1.786187
H      0.528160   -3.365542   -0.163331
H     -1.196351   -3.766835   -0.381534
H      5.686448    1.979481   -0.574572
H      3.733789    3.063684    0.554850
H      5.559329   -0.375626   -1.200715
H     -5.646080    0.390062    2.024354
H     -5.017595    2.632425    1.391479
H      1.691606    1.807661    1.046720
H      3.518137   -1.639697   -0.711600
H     -4.254723   -1.504993    1.406668
H     -2.928013    3.048054    0.091499
H      1.463285   -1.818596    0.779678
H      0.774681   -0.318622    1.419199
H      0.801540   -1.088997   -1.544995
H      0.464372    2.232471   -2.190596
