30

C     -3.229499    0.880271    0.864844
C     -2.051940    1.366270    0.323375
C     -3.420974   -0.475084    0.860131
C      0.873412    0.131928   -1.662701
C      1.757331   -0.955760    0.379685
C     -0.340913   -1.763794   -0.742314
C      1.111109    1.501199    0.333594
C      3.310650    0.807827    1.189082
C      1.034937   -1.180088   -0.911774
C      0.146268    1.115407   -0.771553
C     -1.087005    0.511174   -0.211409
C     -2.433862   -1.280248    0.318108
N      2.054137    0.444279    0.631155
N     -1.295515   -0.811262   -0.205390
O      3.619237    1.987895    1.425439
O     -2.630767   -2.536018    0.323291
H     -3.987438    1.554817    1.285138
H     -1.863201    2.421508    0.307611
H     -4.328634   -0.859573    1.276769
H      1.851137    0.546393   -1.948172
H      0.216991   -0.075146   -2.525903
H      2.709542   -1.507746    0.344539
H      1.175403   -1.388850    1.223327
H     -0.285922   -2.615096   -0.003834
H     -0.690777   -2.119232   -1.732402
H      1.701528    2.356021   -0.054326
H      0.552235    1.783502    1.237420
H      4.047352    0.039826    1.426847
H      1.603725   -1.870031   -1.588275
H     -0.118550    1.989609   -1.392300
