73

C      6.979397   -1.534858    0.662477
C      7.669153    0.872526   -0.575307
C      0.041964   -0.205161    2.592951
C     -4.464427   -1.080524    1.107412
C      1.394082   -0.336063   -1.755898
C     -5.608465   -1.562306   -1.691474
C     -6.355242   -0.477468   -1.779441
C     -1.927847   -1.389578    0.736813
C      0.236016    2.058542    0.385168
C     -0.410293   -1.406320    0.563701
C      1.649453    1.581698    0.519878
C      4.520707   -1.274468    0.102708
C     -2.780189    2.266712    0.310293
C      5.890259   -0.723436    0.020975
C      6.249100    0.404422   -0.553074
C     -2.088383    1.002941    0.720324
C     -0.606114    1.080857    0.686133
C     -2.504222   -0.198249   -0.049481
C     -3.938823    2.089255   -0.592453
C     -4.216812   -1.373663   -1.266908
C     -5.791347    0.827342   -1.464515
C      3.555975   -0.600850   -0.767768
C      5.193947    1.188516   -1.177665
C      0.171220   -0.131034    1.056110
C     -3.983217   -0.384359   -0.178903
C      2.115917   -0.689898   -0.468931
C      1.595422    0.112152    0.661020
C     -4.776027    0.854479   -0.346992
Cl    -3.423703    2.208994   -2.292934
O     -3.303356   -2.038646   -1.824972
O     -6.840352    1.695441   -1.141985
O      5.488649    2.268739   -1.735543
O      1.929930   -2.055070   -0.124042
O      2.347648   -0.235616    1.808019
O     -5.519454    1.132963    0.826870
O      3.920633    0.727741   -1.138328
H      7.976870   -1.145090    0.435235
H      6.940018   -2.584986    0.351715
H      6.814810   -1.464201    1.765802
H      8.073751    0.936086    0.477438
H      7.684110    1.917539   -0.947929
H      8.300458    0.182452   -1.146020
H      0.974960    0.181797    3.078678
H     -0.763291    0.411782    2.985387
H     -0.088577   -1.225394    2.949132
H     -5.571667   -0.996752    1.092650
H     -4.201439   -2.141595    1.112938
H     -4.107553   -0.522040    1.988267
H      1.153408   -1.233175   -2.372064
H      2.061220    0.271542   -2.442943
H      0.528026    0.337223   -1.593569
H     -5.986256   -2.569057   -1.925562
H     -7.390112   -0.615158   -2.092418
H     -2.241635   -1.385315    1.776967
H     -2.318447   -2.311484    0.263197
H     -0.083499    3.049560    0.088731
H     -0.290697   -1.623795   -0.510865
H     -0.025478   -2.246244    1.138032
H      2.078125    2.083377    1.439057
H      2.187828    2.008078   -0.318228
H      4.641004   -2.367026   -0.184081
H      4.289556   -1.329142    1.178616
H     -3.111585    2.798870    1.238783
H     -2.064305    2.970371   -0.169920
H     -2.348422    0.782486    1.801967
H     -2.024598   -0.186384   -1.042123
H     -4.635852    2.963210   -0.425836
H     -5.321085    1.273116   -2.381658
H      3.652260   -1.131861   -1.776463
H     -6.609921    2.252754   -0.336960
H      2.432443   -2.639929   -0.730586
H      2.049315   -1.178328    2.012086
H     -5.064941    1.800962    1.388310
