73

C      7.039053    1.062800    0.673617
C      7.507778   -1.723358    1.022634
C      0.067841    2.267450    0.069873
C     -4.493429    1.805192   -1.347226
C      2.066703   -0.973387   -1.955178
C     -4.626416   -1.954225   -1.467850
C     -5.022011   -2.271542   -0.255070
C     -1.887855    0.991772   -1.610256
C     -0.170225   -0.825706    1.518144
C     -0.428297    0.536961   -1.545419
C      1.249644   -0.919250    1.109010
C      4.561787    0.628294    0.375749
C     -3.096697    0.136035    1.868026
C      5.931853    0.092728    0.601068
C      6.117593   -1.202380    0.756641
C     -2.213143    0.632415    0.765300
C     -0.823100    0.082118    0.832653
C     -2.712557    0.232191   -0.604376
C     -4.453168    0.777478    1.664498
C     -4.587309   -0.559426   -1.853125
C     -5.422092   -1.223539    0.699880
C      3.774976   -0.383678   -0.359388
C      5.003146   -2.142090    0.643605
C      0.105937    0.747735   -0.167227
C     -4.184328    0.403991   -0.800246
C      2.434243    0.034535   -0.889715
C      1.424453    0.233827    0.186423
C     -5.035947    0.169605    0.390643
Cl    -5.564579    0.343157    2.986155
O     -4.878983   -0.204531   -3.011186
O     -6.835435   -1.362094    0.821812
O      5.209136   -3.376996    0.802386
O      2.607283    1.247715   -1.552959
O      2.008951    1.241608    1.023441
O     -6.249238    0.872331    0.134016
O      3.753050   -1.601724    0.362255
H      6.784127    2.019214    0.195044
H      7.896217    0.636548    0.109352
H      7.304068    1.193696    1.747160
H      7.894313   -2.111788    0.058655
H      8.167018   -0.934941    1.383888
H      7.421917   -2.563998    1.744439
H     -0.318880    2.469874    1.081753
H      1.136863    2.649130    0.107716
H     -0.387729    2.822464   -0.744471
H     -4.049863    1.875626   -2.356819
H     -4.135513    2.583532   -0.647648
H     -5.599980    1.834233   -1.486923
H      1.650427   -0.516495   -2.876981
H      1.489551   -1.824077   -1.602674
H      3.025963   -1.445259   -2.346500
H     -4.339068   -2.755429   -2.158713
H     -5.051880   -3.342050    0.048254
H     -2.239531    0.614073   -2.625127
H     -2.020215    2.070782   -1.552678
H     -0.616260   -1.450775    2.307793
H     -0.476347   -0.530003   -1.841920
H      0.112288    1.192902   -2.248694
H      1.846358   -0.857727    2.057214
H      1.366924   -1.909015    0.623819
H      4.203865    0.889486    1.394681
H      4.587297    1.586913   -0.183767
H     -2.683722    0.527591    2.820939
H     -3.131102   -0.953018    1.883000
H     -2.176848    1.730642    0.804848
H     -2.461656   -0.844814   -0.729911
H     -4.342152    1.852744    1.536074
H     -5.067974   -1.549291    1.731748
H      4.394975   -0.610935   -1.294383
H     -6.997550   -2.328784    0.918789
H      3.309927    1.201699   -2.252465
H      1.583101    1.231855    1.909593
H     -6.257545    1.729385    0.596307
