48

C     -5.268321    2.533729   -1.080834
C      3.908872   -1.262222   -0.600022
C      5.249428   -1.281327   -0.924475
C      4.127333    0.830725    0.460468
C     -3.343491    0.525021   -0.433269
C     -2.906564   -1.570086    0.554027
C      0.641899    0.193895   -1.730944
C      0.183620    0.122340    1.713708
C      7.645309    1.392104   -0.372353
C     -6.300216   -2.581465    1.272485
C      3.309177   -0.228372    0.089730
C     -2.436222   -0.455867   -0.110650
C      1.055469    0.711920   -0.393802
C     -0.265254    0.655576    0.389322
C      6.051712   -0.222895   -0.550369
C      5.469415    0.821152    0.140721
C     -4.680484    0.375845   -0.091165
C     -4.235131   -1.739137    0.904655
C      1.874387   -0.281609    0.397848
C     -1.002563   -0.369110   -0.439964
C     -5.132422   -0.750341    0.575988
O     -5.607403    1.339731   -0.401182
O      1.575007    0.083111    1.700998
O     -0.745617    0.056890   -1.723071
O      7.403451    0.039791   -0.727763
O      6.509088    1.724816    0.376961
O     -4.933345   -2.755370    1.564399
O     -6.372459   -1.186968    1.046173
H     -4.565277    2.238001   -1.902331
H     -6.132730    3.062139   -1.480301
H     -4.761981    3.196819   -0.350297
H      3.283828   -2.103121   -0.900139
H      5.723143   -2.092259   -1.466284
H      3.687667    1.649561    0.998494
H     -2.976339    1.387482   -0.948309
H     -2.227011   -2.365792    0.826955
H      1.161905   -0.746080   -2.006528
H      0.872048    1.003504   -2.482276
H     -0.134082    0.865582    2.501039
H     -0.275867   -0.840374    1.977256
H      7.760877    2.020335   -1.282428
H      8.585394    1.380590    0.233847
H     -6.579401   -3.186374    0.409757
H     -6.913819   -2.903311    2.137607
H      1.490615    1.711285   -0.390955
H     -0.761529    1.624712    0.431946
H      1.499286   -1.291154    0.234695
H     -0.511403   -1.333421   -0.289398
