89

C      1.830478   -4.452075    0.589321
C     -4.409389    1.644083   -3.258191
C      4.322180    3.454350    3.664597
C     -1.504316   -1.593649   -4.055094
C     -2.711755    0.569623    5.034347
C     -1.428059   -2.261409    2.445621
C     -0.364589    3.111671   -0.650427
C      0.450282    1.894198   -2.504837
C      4.522558   -0.409315    2.258591
C      0.993158    3.151478   -0.178067
C      1.793170    1.946319   -2.020039
C      4.459949    0.864229    2.741606
C      2.740106   -3.681743   -2.498539
C     -5.017989    2.532144    0.249313
C      2.972032   -4.736267   -1.451626
C     -5.394262    2.176282   -1.141762
C     -2.049626    2.290456   -2.267123
C      4.305600   -2.259712    0.757287
C      3.851546    0.204279    0.023749
C      0.690779   -2.318894   -2.653536
C      1.244074   -1.294754   -0.056075
C     -0.612729    2.457935   -1.832788
C      4.224723   -0.773914    0.913583
C      1.795126   -2.672745   -1.936427
C      2.006325    2.582476   -0.844003
C     -3.949882    1.646854    0.844780
C      2.097909   -2.174372   -0.636922
C      3.374795   -2.804134   -0.220739
C     -3.061429    2.013259   -1.258608
C      4.072714    1.822203    1.825376
C     -0.155587   -1.415371   -2.024390
C      3.776338    1.494605    0.518707
C      0.072146   -0.892143   -0.760735
C     -2.874292    1.275949   -0.013105
C     -4.129225    1.239435    2.138590
C     -1.889345    0.412810    0.458019
C     -3.138667    0.383592    2.602535
C     -2.081599    0.008180    1.773011
N      3.085929   -4.219334   -0.100423
N     -4.296315    1.590565   -1.846012
O     -5.154843    1.586758    2.981336
O      4.020878    3.118119    2.357002
O     -1.288447   -1.068185   -2.798168
O     -3.261142   -0.067378    3.916560
O     -1.211144   -0.862225    2.479877
O      3.360032    2.643261   -0.241026
O     -0.841687   -0.020856   -0.253352
H      1.569008   -5.523937    0.385465
H      1.867762   -4.265338    1.661062
H      1.041235   -3.853925    0.107290
H     -5.521665    1.523831   -3.479411
H     -3.865715    0.866775   -3.813273
H     -4.206018    2.681545   -3.605507
H      5.334882    3.016181    3.893722
H      3.578134    3.166013    4.419551
H      4.508857    4.566704    3.694477
H     -1.511173   -2.709743   -3.990007
H     -2.514700   -1.284856   -4.403704
H     -0.712916   -1.271029   -4.771770
H     -1.940783   -0.118066    5.461022
H     -2.291660    1.557734    4.782350
H     -3.451072    0.709179    5.854559
H     -0.453960   -2.765296    2.282046
H     -2.079103   -2.567930    1.601568
H     -1.828248   -2.557333    3.432526
H     -1.000512    3.700967    0.073876
H      0.526701    1.355486   -3.490917
H      4.833121   -1.193227    2.972952
H      0.989053    3.739552    0.784762
H      2.528531    1.451670   -2.717670
H      4.698786    1.078833    3.758196
H      3.623772   -3.267802   -2.979332
H      2.198280   -4.202801   -3.372755
H     -5.953192    2.344032    0.869368
H     -4.740650    3.595474    0.325183
H      3.925009   -5.253154   -1.713569
H      2.180889   -5.542234   -1.489837
H     -5.630230    3.144985   -1.681222
H     -6.300131    1.528972   -1.140558
H     -2.399096    3.153736   -2.897692
H     -2.137350    1.475649   -3.050323
H      5.341409   -2.599772    0.511336
H      4.176396   -2.787045    1.777818
H      3.714250    0.012820   -1.091906
H      0.494078   -2.714884   -3.639939
H      1.395158   -0.854810    0.992983
H      4.028430   -2.786209   -1.193492
H     -3.350498    3.137095   -0.969534
H     -5.901580    2.175520    2.778510
