41

C     -5.775417    1.410266   -0.818934
C      6.558241    1.706218    0.076413
C     -4.146951    0.195766    0.821801
C     -2.460696   -1.563046    0.958010
C      4.516071   -0.306665   -0.568474
C     -4.687220    1.404650    0.190777
C     -2.892185   -0.313760    0.191520
C     -1.366505   -2.199572    0.166430
C      3.457653   -1.313011   -0.424241
C      4.295181    0.994717   -0.563121
C      2.079244   -0.832515   -0.265779
C     -0.263505   -1.178692    0.020414
C      1.815272    0.537528   -0.256362
C      2.928408    1.475853   -0.405861
C      1.020862   -1.697908   -0.124736
C      0.518583    1.013363   -0.108701
C     -0.541953    0.146049    0.032145
O     -4.216613    2.482115    0.509990
O     -1.796474   -2.496329   -1.145855
O      3.728437   -2.523258   -0.436466
O      2.709216    2.721151   -0.399218
O      1.177393   -3.064829   -0.121124
O      0.320931    2.373866   -0.106582
O      5.376111    1.866008   -0.708585
O     -1.853997    0.644380    0.180570
H     -5.597991    0.685748   -1.637711
H     -5.950834    2.430562   -1.207516
H     -6.720353    1.108395   -0.315507
H      7.306969    2.473298   -0.159783
H      6.326564    1.631946    1.157891
H      6.987822    0.725146   -0.216223
H     -3.941795    0.426121    1.878115
H     -4.931405   -0.588475    0.781160
H     -3.347388   -2.186003    1.096390
H     -2.022590   -1.193642    1.915105
H      5.519634   -0.687651   -0.683328
H     -3.027650   -0.643909   -0.857128
H     -0.958951   -3.124019    0.630878
H     -1.541009   -1.787580   -1.776282
H      1.984316   -3.569058   -0.210133
H     -0.585426    2.816773   -0.004075
