25

C      3.744189    0.817368   -0.356980
C      2.674286   -0.059872    0.200496
C     -3.845206    0.241400   -0.253225
C     -2.913587    1.235324   -0.470989
C     -3.400803   -1.000053    0.192977
C      1.268778    0.431125   -0.175664
C     -1.569616    0.988845   -0.246358
C     -2.053162   -1.211948    0.406920
C     -1.102949   -0.231680    0.195552
C      0.314627   -0.537445    0.447165
O      0.568637   -1.797131   -0.126780
H      4.109510    1.569487    0.368993
H      3.407402    1.283212   -1.302260
H      4.619667    0.168847   -0.610934
H      2.779064   -1.116713   -0.102932
H      2.781077   -0.050961    1.320824
H     -4.909508    0.404671   -0.420869
H     -3.256305    2.203423   -0.818522
H     -4.117409   -1.783821    0.366644
H      1.150998    1.462688    0.223792
H      1.210378    0.493854   -1.264261
H     -0.832894    1.764711   -0.415324
H     -1.743102   -2.189256    0.753882
H      0.525573   -0.579353    1.530578
H      0.590357   -2.506720    0.557275
