40

C      0.210707   -2.836693   -0.185683
C     -6.204978    2.161679    0.157580
C      5.743847    2.156217    0.437346
C     -2.184640    1.059701    0.825532
C     -3.502212    1.437182    0.616243
C     -2.517205   -0.891857   -0.432866
C      2.929511   -1.646238   -0.787082
C      3.059883    0.909612    0.185673
C      0.317935   -1.388751   -0.474460
C     -1.665723   -0.106182    0.308830
C      1.757410   -1.002075   -0.439672
C     -3.839115   -0.538848   -0.657990
C      4.128122   -0.991196   -0.636694
C     -4.339079    0.638399   -0.128380
C      1.826085    0.278370    0.047589
C      4.246496    0.293956   -0.152127
C     -0.273395   -0.480503    0.544494
O     -4.664445   -1.373565   -1.420004
O      5.279419   -1.706865   -1.009827
O     -5.660932    0.969537   -0.366363
O      5.491703    0.875922   -0.033970
O      0.519661    0.705629    0.324153
H     -0.313891   -3.423122   -0.971475
H      1.223345   -3.274179   -0.107166
H     -0.257132   -2.963531    0.811841
H     -5.937298    2.213777    1.221892
H     -5.659572    3.011369   -0.343575
H     -7.285115    2.222861   -0.030467
H      6.768906    2.204676    0.856957
H      4.967558    2.497930    1.120442
H      5.744317    2.853393   -0.450895
H     -1.575730    1.742504    1.427159
H     -3.883023    2.345974    1.026764
H     -2.169422   -1.801159   -0.854509
H      2.843836   -2.650230   -1.166851
H      3.088533    1.916008    0.570567
H     -0.057750   -1.102028   -1.483437
H     -0.055506   -0.795225    1.570448
H     -4.289734   -2.222697   -1.797378
H      6.188624   -1.299753   -0.930303
