45

C      5.716806   -0.560774    0.155767
C     -2.927107    4.263931   -0.456842
C      2.655379    1.906985    1.635202
C      2.134149   -2.587965   -0.259819
C      3.320402   -1.920921   -0.122974
C     -3.904070   -0.843710   -0.667333
C     -3.843338   -1.969492    0.341485
C     -0.290335   -2.687351   -0.361541
C     -2.783297    1.425512   -0.489151
C      0.927320   -1.884380   -0.252581
C     -2.731651    0.074527   -0.507665
C     -1.572559   -2.011992   -0.435904
C      3.325164   -0.560693    0.027035
C     -1.652817    2.168160   -0.322436
C     -1.503569   -0.536436   -0.351434
C      0.962624   -0.512521   -0.106716
C     -0.325088    0.206987   -0.173510
C     -0.385598    1.564175   -0.161686
C      2.120164    0.171177    0.042416
N     -2.498632   -2.418130    0.608787
O      0.661366    2.387549   -0.024645
O      4.497465    0.156551    0.169104
O     -1.730579    3.564997   -0.307527
O      2.327848    1.513280    0.230578
H      6.581105    0.085599    0.410034
H      5.817769   -0.999219   -0.870217
H      5.639333   -1.363629    0.929577
H     -3.263209    4.203958   -1.527704
H     -2.781193    5.325155   -0.200739
H     -3.762677    3.810201    0.142763
H      2.721917    3.005269    1.615553
H      1.840475    1.500677    2.241170
H      3.585032    1.393357    1.918124
H      2.077569   -3.656012   -0.376371
H      4.254227   -2.462259   -0.133213
H     -4.856698   -0.296454   -0.520131
H     -3.835300   -1.302369   -1.674911
H     -4.429211   -2.841074   -0.006370
H     -4.267194   -1.591799    1.293541
H     -0.136410   -3.313208   -1.308460
H     -0.330818   -3.474358    0.451013
H     -3.740492    1.914621   -0.608990
H     -2.044076   -2.250843   -1.446321
H     -2.131559   -2.002291    1.500216
H      0.561363    3.405211   -0.037176
