40

C      0.130667    2.061643    2.093506
C      6.071504   -3.428155   -1.003893
C     -5.918285    1.516415   -1.894100
C      2.746992    0.163473   -0.903466
C      3.808877   -0.611870   -1.164161
C      1.989969   -1.411170    0.652865
C     -2.753693    1.128312    1.654254
C     -2.824879    0.828636   -1.058934
C     -0.162787    0.687328    1.393118
C      1.776992   -0.206742    0.024406
C     -1.607812    0.784146    0.934826
C      3.053046   -2.198745    0.397084
C     -3.964057    1.329211    0.988867
C      4.074412   -1.852298   -0.559350
C     -1.606180    0.621520   -0.386933
C     -3.928258    1.173166   -0.338390
C      0.606455    0.653173    0.120577
O      3.286370   -3.434411    1.018482
O     -5.134619    1.679305    1.720054
O      5.018005   -2.602483   -0.765719
O     -5.111532    1.377361   -1.262381
O     -0.355443    0.255323   -0.864603
H      1.206622    2.184904    2.047585
H     -0.165054    1.918176    3.141303
H     -0.418820    2.824852    1.536750
H      6.707101   -3.471297   -0.052377
H      5.825910   -4.484223   -1.290452
H      6.737929   -3.046466   -1.794197
H     -5.825926    1.505595   -3.134384
H     -6.632287    2.520633   -1.955600
H     -6.895219    0.805562   -1.866423
H      2.585804    1.135650   -1.416740
H      4.526250   -0.253774   -1.931636
H      1.227405   -1.721048    1.399286
H     -2.742739    1.210667    2.733240
H     -2.861745    0.715595   -2.129263
H     -0.054696   -0.123711    2.073085
H      0.849677    1.723719   -0.177894
H      2.702409   -3.857215    1.699972
H     -5.968369    1.899242    1.092827
