33

C      2.198859   -0.781425   -0.934487
C      3.231223   -1.478898   -0.328139
C     -1.557617   -1.191157   -0.622719
C      1.385086   -0.181095    1.175432
C      0.149067    2.105144   -0.408650
C      1.238587   -0.106502   -0.186362
C     -1.210695    0.238682   -0.688641
C      0.190644    0.634878   -0.862035
C      3.341481   -1.527447    1.049678
C     -0.971039   -2.006214    0.424895
C     -1.750584    1.095867    0.430735
C     -2.802585    2.042384   -0.021749
N      2.407128   -0.871773    1.757876
N     -0.625451    1.956138    0.833981
O      4.379689   -2.227061    1.673292
O     -0.069768   -2.827053    0.128737
O     -1.354039   -1.927572    1.749483
O     -2.663722    3.303514   -0.008688
O     -4.038400    1.602112   -0.501198
H      2.147506   -0.770320   -2.021752
H      3.974919   -1.999366   -0.912555
H     -1.379761   -1.624640   -1.656778
H     -2.680736   -1.301780   -0.515809
H      0.690746    0.303053    1.833089
H     -0.413789    2.652919   -1.161006
H      1.164055    2.450159   -0.225299
H     -1.763934    0.647323   -1.614547
H      0.410181    0.664880   -1.971831
H     -2.169293    0.536747    1.268674
H     -0.939559    2.905772    1.085285
H      5.079651   -1.683812    2.146361
H     -1.151538   -2.665577    2.431508
H     -4.446311    2.032119   -1.351501
