33

C      2.463413    0.679312   -0.465936
C      3.640058    0.052997   -0.686563
C     -1.084267   -1.301683   -0.507469
C      1.718746   -1.137501    0.764805
C     -0.207580    1.937499   -0.247739
C      1.434475    0.126649    0.262715
C     -1.052107   -0.155519    0.400885
C      0.131675    0.720181    0.486722
C      3.867675   -1.219842   -0.157825
C     -2.405865   -2.028934   -0.260945
C     -2.156239    0.850773   -0.218962
C     -2.544750    1.725051    0.871699
N      2.864593   -1.760398    0.562812
N     -1.259818    1.478521   -1.150886
O      5.043459   -1.859036   -0.356423
O     -3.206596   -1.649408    0.608298
O     -2.722369   -3.135605   -1.018103
O     -2.154937    1.325755    2.084817
O     -3.227281    2.896742    0.900379
H      2.341324    1.645357   -0.891183
H      4.469925    0.493385   -1.268314
H     -0.247067   -1.978564   -0.550346
H     -1.238603   -1.036520   -1.610234
H      0.953171   -1.668748    1.388199
H     -0.728904    2.677657    0.422075
H      0.580088    2.499747   -0.742311
H     -1.530273   -0.407837    1.394837
H      0.163738    1.048590    1.598473
H     -2.917491    0.228653   -0.642725
H     -0.897773    0.797180   -1.819117
H      5.892341   -1.438285   -0.084425
H     -3.092625   -3.982922   -0.575033
H     -2.890136    3.576751    1.606454
