52

C     -0.317105    4.581066    0.702864
C     -2.817314    1.175510    0.950851
C      5.771175    0.084456    0.308347
C      2.599005    2.152903   -2.428134
C      1.979885   -1.647245    0.712654
C      3.243484   -1.060987    0.574323
C     -4.017664   -0.898847   -0.537641
C     -3.747984    0.462329   -1.097633
C     -2.930503   -2.759244    0.584186
C     -0.375506   -5.011786    1.781634
C     -0.204384    3.510260   -0.331713
C     -2.766095   -1.522457   -0.031451
C      0.873662   -0.968088    0.267387
C      3.352545    0.170060    0.001406
C     -1.848559   -3.423959    1.087160
C     -1.519678   -0.948377   -0.145208
C     -0.428298   -1.621309    0.364906
C      0.967894    0.285447   -0.315469
C     -1.442232    0.332486   -0.841190
C      2.240239    0.844814   -0.441656
C     -0.591977   -2.861197    0.981608
C     -0.162180    1.065513   -0.749722
N     -2.601940    1.114107   -0.468499
O     -0.064971    3.780720   -1.532461
O      4.619258    0.762542   -0.140655
O      2.391115    2.083812   -1.014889
O     -1.749618   -4.659473    1.740104
O      0.249174   -3.774890    1.578252
O     -0.260261    2.214453    0.090881
H     -0.848707    4.205843    1.592257
H     -0.889873    5.454039    0.330833
H      0.683004    4.930674    1.022125
H     -3.085425    2.221713    1.206388
H     -1.930097    0.911138    1.550467
H     -3.649850    0.538253    1.301249
H      5.732064   -0.015231    1.411338
H      5.793538   -0.907174   -0.192387
H      6.653666    0.670519    0.044327
H      3.704745    2.094550   -2.617355
H      2.125595    1.298016   -2.935016
H      2.269068    3.125191   -2.816644
H      1.925395   -2.616677    1.165922
H      4.098925   -1.621252    0.935546
H     -4.379489   -1.548611   -1.360763
H     -4.821211   -0.904685    0.226837
H     -3.468986    0.342462   -2.167055
H     -4.642392    1.114641   -1.068487
H     -3.908273   -3.218989    0.678235
H     -0.153482   -5.743468    0.970230
H     -0.078419   -5.383808    2.777548
H     -1.614491    0.090955   -1.936072
H      0.043525    1.499283   -1.769762
