100

C     11.258087    0.522402    0.490237
C      9.809800   -1.340033    1.428361
C    -10.203625   -0.682038   -0.708676
C    -10.889119    1.444299    0.619702
C     -0.268302    3.012699   -3.782286
C      0.531182   -2.228993    3.644625
C      5.108601   -0.831889    1.683132
C     -5.964886   -1.953231   -1.382223
C      2.408499   -1.050359   -2.401740
C     -2.715905    1.225331    2.310518
C      7.509066   -0.144197    0.103389
C     -7.627511    0.380597   -1.108680
C      8.899125    0.429601    0.025567
C     -8.655342    1.136651   -0.350451
C      0.574693   -0.065659   -0.307693
C     -0.737507    0.523678    0.123980
C      4.756150    1.329461   -1.430913
C     -4.410303   -1.723320    1.100819
C      6.645539    0.909267    0.724941
C     -6.422431    0.127466   -0.193777
C      3.578297    1.074725   -2.342680
C     -3.549293   -1.062304    2.174470
C      9.925602   -0.115401    0.624374
C     -9.876453    0.667788   -0.143257
C      0.460258    2.653074   -2.541758
C     -0.278940   -2.061462    2.413411
C      4.707213    0.120524   -0.543307
C     -4.155082   -0.870051   -0.094614
C      1.394007    0.858969   -1.141917
C     -1.482644   -0.487571    0.953285
C      5.221025    0.399375    0.843818
C     -5.367389   -0.637565   -0.941605
C      2.701689    0.179109   -1.529458
C     -2.814984    0.023740    1.430873
O      0.866230    3.487959   -1.702622
O     -0.590928   -3.013668    1.656473
O      4.393446    1.419805    1.357090
O     -5.044161    0.104863   -2.086231
O      0.710059    1.322847   -2.288676
O     -0.704524   -0.789851    2.095964
O      3.377400   -0.269810   -0.431240
O     -3.599629    0.328845    0.322999
H     11.892108   -0.091696   -0.183731
H     11.678004    0.632689    1.506395
H     11.156813    1.550912    0.084303
H      9.401202   -2.148954    0.757324
H     10.792968   -1.707643    1.771789
H      9.186482   -1.215370    2.336835
H     -9.480773   -1.420248   -0.314131
H    -11.227394   -0.985126   -0.418336
H    -10.113953   -0.611734   -1.820187
H    -10.540760    1.666102    1.655127
H    -11.213780    2.365211    0.097924
H    -11.801137    0.814463    0.717198
H      0.298984    3.859012   -4.268926
H     -0.236521    2.179249   -4.480046
H     -1.274239    3.419771   -3.569970
H      0.867759   -3.263255    3.796174
H     -0.122315   -1.875493    4.492386
H      1.382372   -1.515721    3.619130
H      5.040196   -1.763570    1.070027
H      6.027961   -0.933785    2.295474
H      4.182963   -0.775572    2.304897
H     -5.165543   -2.712863   -1.532322
H     -6.515272   -1.851539   -2.347663
H     -6.630181   -2.381438   -0.580864
H      2.166937   -1.932316   -1.792470
H      3.367616   -1.266892   -2.926466
H      1.666108   -0.818246   -3.181379
H     -1.880791    1.181570    3.030435
H     -3.643261    1.321399    2.912868
H     -2.677404    2.166056    1.690557
H      7.560548   -1.079139    0.663400
H      7.212801   -0.351430   -0.952353
H     -7.222396    0.960623   -1.965761
H     -8.012063   -0.562664   -1.518052
H      8.987883    1.338288   -0.570414
H     -8.399079    2.103397    0.046491
H      1.155535   -0.307360    0.606968
H      0.386240   -1.008374   -0.851926
H     -1.331064    0.930598   -0.707596
H     -0.543186    1.398787    0.811984
H      4.553708    2.238427   -0.825066
H      5.706739    1.399881   -1.999352
H     -5.436733   -1.716353    1.481990
H     -4.047975   -2.767904    0.920210
H      6.590206    1.760031   -0.014978
H      7.032365    1.286985    1.674959
H     -6.818244   -0.500065    0.626592
H     -6.086785    1.122857    0.153820
H      3.124458    2.060970   -2.559527
H      3.890766    0.644467   -3.306372
H     -4.166285   -0.650260    3.004131
H     -2.892694   -1.817094    2.606179
H      5.247195   -0.742529   -0.986458
H     -3.370476   -1.388778   -0.722228
H      1.659046    1.746359   -0.534545
H     -1.663180   -1.433047    0.405200
H      4.880938    2.265511    1.249189
H     -4.060430    0.151537   -2.133064
