37

C      3.498810   -1.548468   -0.497565
C     -1.778295   -1.832260    1.095768
C     -0.580571   -1.151325   -1.272633
C     -1.543225    1.641655   -1.305875
C     -2.630309    1.641054   -0.221236
C      0.708404    1.966694   -0.570637
C      4.606673    0.071949    0.842655
C      3.408635   -0.474990    0.253991
C     -1.518541   -0.347054    0.863126
C     -0.318134    1.148923   -0.631140
C     -2.760006    0.230925    0.261037
C      1.929464    1.568228    0.064203
C      0.927040   -0.673157    0.553293
C     -0.336683   -0.216970   -0.076987
C      2.098789    0.164681    0.494120
O      5.745437   -0.424189    0.676750
O     -3.789285    0.113142    1.222467
O      2.898012    2.356792    0.287711
O      1.431917   -0.078511    1.694595
H      4.478195   -1.995480   -0.654755
H      2.633111   -2.009830   -0.970150
H     -2.546981   -1.905915    1.904160
H     -0.845846   -2.354932    1.358836
H     -2.254945   -2.287085    0.194313
H     -0.513953   -2.184846   -0.864036
H     -1.537451   -0.984927   -1.753390
H      0.295619   -1.013432   -1.938686
H     -1.418738    2.655073   -1.724104
H     -1.880543    0.988342   -2.131052
H     -2.305831    2.330462    0.600539
H     -3.576348    1.947190   -0.665261
H      0.682112    2.975938   -0.995075
H      4.530778    0.953410    1.459471
H     -1.286762    0.091624    1.837622
H     -3.103820   -0.385366   -0.597444
H      1.129666   -1.788896    0.563048
H     -4.476393    0.811549    0.990693
