70

C     -2.010706   -1.398262   -4.581168
C     -4.432286    0.475389    4.674154
C     -2.168795   -1.203433   -3.063271
C      7.374618    1.136566    0.215641
C      7.185978    0.041578   -0.815136
C     -0.209518   -0.600900    0.761306
C      0.585491   -1.803757    1.193992
C     -7.259599    1.100081    1.695057
C     -6.308660    0.891273    2.664414
C     -6.903286    1.078370    0.365030
C      5.999763    1.778887    0.401230
C      5.723590    0.042581   -1.141111
C     -1.496881    0.038066   -2.617304
C     -0.788464   -0.793888   -0.600504
C      1.787544   -2.140578    0.398858
C     -3.184399    0.355646    0.685000
C      5.078941   -0.305426    1.251687
C      3.672250    1.078366   -0.254769
C     -3.809840    1.151291   -1.537897
C     -2.969315    0.134294   -0.782829
C     -4.642835    0.637833    0.984129
C     -4.976085    0.654446    2.342787
C     -5.576207    0.844425    0.003361
C      3.884225   -1.162845    1.340551
C      2.961485   -0.191296   -0.654010
C      5.075919    0.636969    0.100138
N     -1.579242    0.257591   -1.145747
N      2.833797   -1.182068    0.350700
O      3.740109   -1.930843    2.317910
O      2.520494   -0.340879   -1.807530
O     -4.016180    0.443234    3.322458
O     -5.164718    0.814379   -1.337737
H     -0.951356   -1.632599   -4.825579
H     -2.392333   -0.528188   -5.136703
H     -2.609652   -2.276514   -4.872930
H     -4.927513    1.430710    4.935123
H     -5.140549   -0.348518    4.914633
H     -3.527182    0.282135    5.299558
H     -1.788623   -2.117384   -2.598920
H     -3.280030   -1.109288   -2.909624
H      7.778953    0.748798    1.178739
H      8.097785    1.907026   -0.161853
H      7.735903    0.287074   -1.753751
H      7.476633   -0.945337   -0.393616
H     -0.864448   -0.244016    1.551237
H      0.577032    0.254753    0.698047
H     -0.095388   -2.707032    1.115795
H      0.780305   -1.747019    2.296341
H     -8.277686    1.278846    1.993667
H     -6.551460    0.901351    3.716674
H     -7.617661    1.237153   -0.422079
H      5.877732    2.644305   -0.285506
H      5.952797    2.079773    1.485183
H      5.320922   -0.945443   -1.393921
H      5.473031    0.744656   -1.973874
H     -0.381885   -0.114803   -2.772019
H     -1.736483    0.931632   -3.185012
H      0.037366   -1.112541   -1.287667
H     -1.405090   -1.763563   -0.535975
H      1.462775   -2.353065   -0.655690
H      2.136629   -3.146089    0.761004
H     -2.993846   -0.588092    1.272527
H     -2.627657    1.210063    1.077401
H      5.943137   -1.014917    1.071317
H      5.341326    0.178863    2.220652
H      3.734108    1.783906   -1.095563
H      3.176430    1.520119    0.609064
H     -3.638656    1.190418   -2.609290
H     -3.625894    2.126451   -1.028806
H     -3.396658   -0.875885   -1.027971
