38

C     -1.645182   -1.767700    1.059567
C     -2.200717   -1.168293   -1.215687
C      0.392671    1.001084    1.810224
C     -1.921788    1.861109    0.243203
C     -2.341327    0.488097    0.582049
C     -0.536833    2.073937   -0.231634
C      0.896410   -1.419431   -0.027252
C      1.757907    1.231628   -0.167725
C      3.923982    0.688349   -1.121378
C      2.562846    0.337286   -0.673858
C      2.132830   -1.053662   -0.814815
C     -0.112399   -0.297505   -0.283279
C     -1.508096   -0.624951    0.046187
C      0.383288    1.002030    0.311877
O      4.636967   -0.222172   -1.595624
O      3.173370   -1.956047   -0.598290
H     -0.984408   -2.597166    0.864010
H     -1.481044   -1.393162    2.082234
H     -2.717775   -2.116773    1.040091
H     -1.525447   -1.828962   -1.780838
H     -3.159805   -1.624565   -0.955217
H     -2.426394   -0.255620   -1.824835
H      1.291274    1.559160    2.146691
H      0.475162   -0.011049    2.230001
H     -0.467964    1.567328    2.244138
H     -2.605632    2.328906   -0.528270
H     -2.070108    2.535192    1.140438
H     -3.401257    0.356984    0.203286
H     -2.485637    0.398836    1.702414
H     -0.520873    1.956537   -1.348662
H     -0.161383    3.070609    0.040427
H      0.496849   -2.336466   -0.510340
H      1.099985   -1.553333    1.047556
H      2.139105    2.254111   -0.090764
H      4.305287    1.696138   -1.047449
H      1.849893   -1.192103   -1.900569
H     -0.026250   -0.132021   -1.395939
H      2.782492   -2.856340   -0.681971
