26

C     -3.094569    1.824960   -0.839627
C     -0.787270   -2.343324    0.541187
C      3.703124    0.158581    0.473590
C      2.435358    0.117633    1.026893
C      3.828588    0.172831   -0.904394
C      1.471480    0.106208   -1.109677
C     -2.457836    0.951269    0.211295
C      1.288692    0.090371    0.258844
C     -1.972893   -0.317047   -0.359040
C     -0.005179    0.047703    0.916851
N      2.703581    0.146004   -1.647598
N     -0.936243   -0.896785    0.358384
O     -2.486400   -0.809103   -1.422400
S     -0.888512    1.651781    0.806010
H     -2.347022    2.181405   -1.569675
H     -3.887023    1.208509   -1.330041
H     -3.620017    2.665327   -0.351213
H     -1.165160   -2.861370   -0.374350
H     -1.386124   -2.720520    1.389115
H      0.265196   -2.609151    0.759724
H      4.606154    0.180176    1.061057
H      2.374685    0.107444    2.121699
H      4.821626    0.205101   -1.362602
H      0.574892    0.084910   -1.713161
H     -3.143810    0.816033    1.067308
H      0.104681   -0.158946    1.991822
