34

C     -2.831264    2.111638    0.431577
C      3.888067   -1.117976   -0.506068
C      4.226996   -0.047510    0.308644
C      0.088700    1.165471    0.742424
C      2.558092   -0.883779   -0.849655
C      0.760484    0.674102   -0.520140
C      3.137208    0.777613    0.434402
C     -0.178019   -0.349513   -1.021102
C      1.715455   -1.728218   -1.698618
C     -2.993640   -0.392192    0.002430
C     -1.067126    0.272823    1.044225
C     -0.840677   -0.939101    0.203337
Br     3.137079    2.372814    1.460791
N      0.377781   -1.307009   -1.916766
N     -2.158894   -1.350720   -0.159272
N     -2.327912    0.773090    0.492872
N      2.110988    0.242976   -0.291148
O      2.165876   -2.800838   -2.221966
O     -4.362837   -0.533123   -0.282226
O     -1.195955   -0.016724    2.398483
O     -0.085507   -1.918975    0.808203
H     -2.706873    2.638549    1.400263
H     -3.902714    2.097391    0.208833
H     -2.315099    2.638751   -0.405839
H      4.506658   -1.950459   -0.811796
H      5.214421    0.066749    0.749232
H     -0.288606    2.204840    0.658768
H      0.785572    1.122558    1.614354
H      0.776291    1.562226   -1.219010
H     -1.001976    0.192677   -1.573042
H     -0.172199   -1.679105   -2.693048
H     -4.689665   -1.365431   -0.783894
H     -1.635620    0.780328    2.811368
H     -0.695084   -2.614790    1.183385
