47

C     -1.162510    3.984320   -0.393291
C     -3.541019   -1.741654    0.506690
C     -0.030372    3.047933   -0.641665
C      3.346673    0.292687    0.511976
C      3.513951   -1.190641    0.524297
C      1.988954    0.659066    1.028152
C     -0.323724   -2.417097   -0.689685
C      2.318811   -1.942137   -0.007864
C      0.813130   -2.358020   -1.711281
C     -2.515264   -0.769103    0.994441
C     -0.101548    1.753103    0.144122
C      1.090770    0.912397   -0.193661
C     -0.318317   -1.098063    0.004484
C     -1.574042   -0.303694   -0.109402
C      0.701267   -0.345313   -0.831303
C     -1.427942    1.159483   -0.006660
C     -3.193575    0.503756    1.344082
N      1.671602   -1.318435   -1.103941
O     -4.358159    0.705663    1.766087
O     -2.252636    1.492264    1.106641
H     -1.300905    4.613991   -1.300648
H     -0.836152    4.677902    0.436553
H     -2.098897    3.469895   -0.105721
H     -4.329009   -1.817494    1.285078
H     -3.136651   -2.763491    0.361051
H     -4.047732   -1.411679   -0.423210
H     -0.020630    2.810851   -1.737476
H      0.927007    3.558458   -0.411830
H      3.482922    0.667473   -0.530270
H      4.148491    0.728805    1.147659
H      3.741486   -1.501005    1.564996
H      4.444078   -1.437134   -0.063036
H      2.080001    1.657888    1.526533
H      1.549808   -0.051705    1.724995
H     -1.274974   -2.646005   -1.208453
H     -0.099333   -3.251818    0.004929
H      1.686009   -2.202696    0.847007
H      2.728197   -2.928761   -0.383745
H      0.463224   -1.937595   -2.660204
H      1.344248   -3.313763   -1.794838
H     -1.979723   -1.211954    1.839758
H      0.041691    2.066502    1.222288
H      1.760438    1.473861   -0.900300
H     -0.041998   -1.147142    1.072636
H     -2.075765   -0.632966   -1.067131
H      0.168884   -0.104146   -1.795043
H     -1.970762    1.607213   -0.893800
