59

C      1.382774    1.440763    1.987822
C      0.134457    1.011341    1.239665
C      2.133457    0.296892    2.583151
C     -0.784671    0.307156    2.173724
C      2.551865   -0.655905    1.495252
C     -2.031114   -0.131443    1.428943
C      6.304112   -1.039562   -0.550159
C      6.507433   -0.259035   -1.782956
C      3.440540   -0.047731    0.465833
C      5.043937   -1.805283   -0.473634
C     -2.777898    1.034719    0.842302
C      5.556075    0.846190   -2.028235
C     -6.938115    0.722752   -0.453122
C      3.774629   -1.086291   -0.530202
C     -4.016559    0.524381    0.148777
C     -5.696977    0.904517   -1.322292
C     -3.755766   -0.438894   -0.970876
C     -5.101212   -0.403990   -1.711069
N     -4.720201    1.604331   -0.527408
O      5.600669    1.805021   -0.991591
O     -7.939601    0.047794   -1.155214
O      2.976549   -1.369057   -1.437170
O     -3.502412   -1.746481   -0.534774
O     -4.904376   -0.533259   -3.083376
H      2.025939    2.001680    1.302079
H      1.043421    2.178894    2.752933
H      0.354603    0.413009    0.347632
H     -0.307605    1.976652    0.853810
H      1.554126   -0.255299    3.349222
H      3.030798    0.684599    3.118433
H     -0.268525   -0.607169    2.535948
H     -1.117472    0.963079    2.993536
H      3.121565   -1.473275    1.986508
H      1.649529   -1.049023    0.983480
H     -1.759372   -0.821285    0.589027
H     -2.738734   -0.685869    2.077101
H      7.182849   -1.743108   -0.425365
H      6.387147   -0.324677    0.330244
H      6.382558   -0.982398   -2.646429
H      7.559756    0.149427   -1.808525
H      4.383450    0.265453    0.976905
H      3.046807    0.872512   -0.010796
H      5.049848   -2.682485   -1.204361
H      5.020345   -2.365071    0.527957
H     -3.085913    1.681694    1.687624
H     -2.166159    1.677292    0.177069
H      5.847546    1.418723   -2.953406
H      4.504464    0.593341   -2.179247
H     -7.314039    1.733229   -0.224882
H     -6.683291    0.239897    0.492487
H     -4.691156    0.058443    0.876123
H     -5.972680    1.460866   -2.244358
H     -2.943419   -0.074599   -1.640248
H     -5.703362   -1.243337   -1.302615
H     -5.149378    2.282652    0.137441
H      6.235826    2.519356   -1.189816
H     -8.616646   -0.210134   -0.477036
H     -3.868011   -2.430258   -1.118705
H     -5.232411    0.327226   -3.483159
