52

C      3.834580   -1.198670   -2.909439
C      3.607395    1.179663    4.015150
C     -2.453640    0.175732   -3.125531
C     -0.363535   -3.516950    1.268823
C     -4.513539    1.524390    1.548660
C     -0.646328   -3.585300   -0.082276
C     -0.417181   -2.288827    1.889290
C     -4.731822    0.532259    0.628137
C     -3.273041    2.072201    1.688896
C     -0.976093   -2.453909   -0.803083
C     -0.746551   -1.161769    1.168138
C     -3.691281    0.096475   -0.149886
C     -2.230845    1.613045    0.887056
C      4.370319   -0.208215    0.636648
C     -1.026935   -1.235765   -0.176963
C     -2.408781    0.648822   -0.019111
C      3.762490   -0.402966   -0.588286
C      3.707376    0.375355    1.695736
C     -0.149032    0.798820   -1.086945
C     -0.372209    2.188894   -1.633567
C      1.827433    0.555830    0.262643
C     -1.396695    0.043955   -0.949302
N      2.488002   -0.018873   -0.772450
N      2.434468    0.745106    1.470384
O     -0.951325    2.426947   -2.692798
O      0.094822    3.312183   -0.923877
O      4.416657   -0.988398   -1.661220
O      4.272155    0.593297    2.943143
O     -1.962945   -0.389727   -2.070285
O      0.518699    0.985359    0.179221
H      3.961945   -0.269231   -3.514948
H      2.743153   -1.382475   -2.856461
H      4.342867   -2.069765   -3.388190
H      2.531905    1.337969    3.710891
H      4.011664    2.224442    4.123858
H      3.656593    0.637225    4.957524
H     -3.248956    0.953741   -2.910340
H     -3.120988   -0.649821   -3.690281
H     -1.865818    0.504305   -3.979721
H     -0.103993   -4.424406    1.823803
H     -5.338697    1.894117    2.189864
H     -0.601421   -4.569796   -0.569547
H     -0.205601   -2.178484    2.941940
H     -5.720449    0.110968    0.531517
H     -3.094935    2.854554    2.413073
H     -1.195747   -2.526915   -1.868018
H     -0.785145   -0.208008    1.678982
H     -3.911726   -0.687605   -0.862001
H     -1.271967    2.051090    1.016224
H      5.391559   -0.511006    0.799220
H      0.574555    0.323009   -1.753981
H      0.228582    4.167125   -1.430309
