59

C      1.118301    0.210050   -1.634640
C      1.770681    1.544769   -1.361363
C     -0.178097    0.018247   -0.914322
C      3.073608    1.664377   -2.119431
C     -1.183410    1.050630   -1.294585
C      4.060202    0.606303   -1.746080
C     -2.494579    0.888942   -0.583899
C      6.782986   -1.394703    1.921139
C      4.376173    0.704225   -0.272049
C      5.770505   -0.365525    1.568588
C     -3.150666   -0.414386   -0.851766
C      8.073594   -1.233377    1.200787
C     -7.545349   -0.615666   -0.183092
C      5.354663   -0.327611    0.154471
C     -4.455849   -0.651844   -0.174861
C     -6.464537    0.218941    0.477341
C     -4.359977   -0.600158    1.334287
C     -5.850055   -0.461533    1.669860
N     -5.384742    0.400934   -0.453339
O      8.585008    0.036300    1.533967
O     -7.120511   -1.869694   -0.574352
O      5.801388   -1.119988   -0.639460
O     -3.800840   -1.724342    1.890073
O     -6.029395    0.355831    2.778677
H      1.785831   -0.638770   -1.384046
H      0.931104    0.168490   -2.730362
H      1.876194    1.670320   -0.277186
H      1.124897    2.361489   -1.739643
H     -0.025361   -0.064581    0.181257
H     -0.554530   -0.993537   -1.243278
H      3.472928    2.686456   -2.031349
H      2.810797    1.530888   -3.203129
H     -1.342454    0.974089   -2.396088
H     -0.789939    2.079088   -1.129480
H      4.992938    0.807355   -2.321489
H      3.701702   -0.381725   -2.033826
H     -2.297604    0.987832    0.508491
H     -3.133598    1.745881   -0.945745
H      6.998677   -1.275010    3.023496
H      6.338561   -2.406498    1.820928
H      3.427704    0.476128    0.294586
H      4.780510    1.691962   -0.034603
H      6.139593    0.678373    1.798954
H      4.831129   -0.491934    2.162656
H     -3.356168   -0.464687   -1.961206
H     -2.445727   -1.237367   -0.602375
H      7.943790   -1.322722    0.123956
H      8.800868   -2.010982    1.586250
H     -8.394893   -0.674839    0.555980
H     -7.970886   -0.104359   -1.065327
H     -4.843346   -1.668864   -0.423872
H     -6.891308    1.220514    0.757606
H     -3.863413    0.288002    1.719497
H     -6.259452   -1.469149    1.853496
H     -4.934671    1.311098   -0.217702
H      8.058170    0.733447    1.081022
H     -7.644668   -2.186860   -1.355930
H     -4.390437   -2.179430    2.539633
H     -5.626043    1.239180    2.605941
