46

C      0.468272   -0.244601    1.688799
C     -6.041195    1.178232    0.203997
C      4.626413    3.377086   -1.151225
C     -2.198100   -1.615049    1.099554
C     -2.544912   -0.779860   -1.085325
C     -3.339500   -0.969334    1.495471
C     -3.689505   -0.135030   -0.677377
C      3.096507   -1.280536    0.778396
C      2.118913   -1.864690    1.739423
C     -0.585485   -2.296969   -0.570684
C      3.233861    0.909287   -0.418311
C      0.746283    0.441374   -1.461853
C     -1.785803   -1.522118   -0.217327
C      2.537067   -0.228340   -0.109096
C     -4.106551   -0.221088    0.629221
C      1.245917   -0.498343   -0.632972
C      0.703346   -1.749783   -0.172480
C      1.459905    1.596591   -1.772784
C      2.696476    1.848163   -1.265027
N      0.745489   -1.626835    1.335644
O      0.886254    2.528530   -2.635382
O     -5.247641    0.414691    1.062097
O      3.355814    3.016484   -1.611980
H     -0.185393   -0.191809    2.608927
H     -0.044568    0.317118    0.909827
H      1.378496    0.316735    1.983637
H     -6.807443    1.747564    0.751423
H     -6.598770    0.507140   -0.508196
H     -5.440165    1.941104   -0.364940
H      4.520313    4.007177   -0.224081
H      5.303698    2.522277   -0.978497
H      5.147392    4.040665   -1.888690
H     -1.637946   -2.195949    1.835073
H     -2.250568   -0.703331   -2.151380
H     -3.696663   -1.022094    2.537339
H     -4.287497    0.453267   -1.371136
H      3.504036   -2.123512    0.150654
H      3.973047   -0.875987    1.324292
H      2.290117   -1.383556    2.737152
H      2.266708   -2.968709    1.855989
H     -0.694618   -3.290599   -0.021928
H     -0.624732   -2.639742   -1.644844
H      4.226910    1.091341    0.000948
H     -0.205416    0.317730   -1.917073
H      1.523321   -2.529264   -0.348992
H     -0.042085    2.384573   -3.043423
