82

C      6.179843    1.885749   -0.149338
C     -4.134376   -1.718017   -1.983237
C      1.741488   -4.305961   -2.771805
C     -3.991354   -4.850150    3.231411
C      3.025276    3.421922    1.226017
C      1.860684    1.945533    2.672238
C     -2.866102    3.129248   -1.583569
C      1.848922    4.222229    1.076379
C      0.709766    2.762024    2.504654
C     -3.023976    4.457486   -1.215782
C      5.265974   -1.410256   -1.136475
C     -5.056578   -0.727012    0.603526
C      5.653833    0.036125   -1.401209
C     -5.334069   -0.191733   -0.753217
C      4.124701    1.231872    1.809516
C     -2.091071    0.839589   -1.608599
C     -1.185829    2.639355    0.062386
C      3.052575   -2.297136   -1.524406
C     -3.889679   -2.622980    1.524117
C      1.767170   -0.378995    0.029193
C      3.015726    2.289956    2.004771
C     -1.987793    2.230850   -0.987213
C      3.762840   -1.278745   -0.909584
C     -3.837457   -1.531413    0.698295
C      0.713874    3.871659    1.702671
C      3.162670   -0.273872   -0.112699
C      4.086735    0.770181    0.322061
C     -2.962459    0.043125   -0.839890
C     -2.196678    4.836009   -0.157500
C     -1.334795    3.949409    0.426680
C      1.732252   -2.330499   -1.352031
C      0.999328   -1.376460   -0.559963
C     -2.784848   -3.403229    1.693501
C     -2.653580   -1.156498   -0.017612
C     -1.663684   -3.045924    1.013194
C     -1.531548   -1.925199    0.136471
N      5.406889    0.685606   -0.148359
N     -4.190930   -0.312955   -1.597161
O     -2.308075    6.181689    0.268750
O     -0.573958   -3.920739    1.246138
O      1.056426   -3.381940   -2.009815
O     -2.810462   -4.512169    2.531424
O     -0.556690    4.592462    1.525157
O     -0.340167   -1.639125   -0.525727
H      6.062712    2.550646   -1.037917
H      7.267404    1.547482   -0.212685
H      6.130557    2.465233    0.791419
H     -4.262600   -1.743260   -3.080107
H     -3.242031   -2.248294   -1.639528
H     -5.015457   -2.264931   -1.576672
H      2.305204   -5.062652   -2.206259
H      1.025342   -4.918621   -3.411894
H      2.461745   -3.872194   -3.522926
H     -3.736747   -5.520830    4.082491
H     -4.380430   -3.904939    3.635387
H     -4.695606   -5.338008    2.547508
H      3.825790    3.996677    0.674916
H      1.611958    1.131343    3.410807
H     -3.534002    2.815949   -2.415094
H      2.081941    5.101730    0.426330
H     -0.118253    2.347643    3.161694
H     -3.718550    5.123694   -1.679956
H      5.682800   -1.783242   -0.198823
H      5.488292   -2.047448   -1.996764
H     -5.008610    0.115562    1.378694
H     -5.914663   -1.363158    0.978589
H      6.738681    0.041016   -1.552956
H      5.110662    0.388467   -2.272950
H     -5.621482    0.896027   -0.595413
H     -6.184974   -0.688834   -1.299676
H      4.030677    0.280351    2.308606
H      5.113520    1.575390    2.133245
H     -1.147703    0.366972   -1.917863
H     -2.564633    0.963687   -2.653783
H     -0.512998    1.884209    0.589207
H      3.599916   -3.056648   -2.119031
H     -4.823150   -2.877398    2.049245
H      1.186359    0.347808    0.671050
H      3.813128    1.796426   -0.164349
H     -3.470874    0.813291   -0.095333
H     -1.751323    6.534514    1.027483
H      0.306590   -3.824734    0.819944
