38

C      3.549969   -1.088095   -1.175773
C      4.407049   -0.356515    0.970580
C     -1.650686   -2.184812   -0.196666
C     -0.866118    0.050536   -1.887260
C     -1.839526    2.079772    0.185007
C     -2.768072    1.178966    1.006548
C      0.535184    2.050271    0.553930
C      3.310613   -0.505163   -0.017846
C     -1.512418   -0.798140    0.340397
C     -0.534331    1.389782    0.124691
C     -2.865199   -0.117616    0.234141
C      1.864132    1.436439    0.527290
C      0.836038   -0.652514   -0.304028
C     -0.483283    0.022605   -0.400868
C      1.942053   -0.008258    0.271209
O     -3.876848   -0.942167    0.708957
O      2.844338    2.191581    0.725884
O      1.218042   -0.882638    1.093167
H      2.744637   -1.191279   -1.888426
H      4.534569   -1.469792   -1.438165
H      4.482084   -1.247711    1.650849
H      4.278338    0.514156    1.621145
H      5.403425   -0.275111    0.475254
H     -2.093074   -2.818877    0.626640
H     -2.378688   -2.237388   -1.028435
H     -0.686712   -2.664987   -0.446531
H      0.062946    0.408042   -2.414425
H     -1.092649   -0.974958   -2.233563
H     -1.640497    0.788448   -2.104280
H     -2.300639    2.203440   -0.793850
H     -1.778450    3.061205    0.698018
H     -3.750092    1.652810    1.174762
H     -2.260808    0.965825    1.973651
H      0.398238    3.053300    0.923546
H     -1.221224   -0.811041    1.410711
H     -3.083861    0.136790   -0.818636
H      0.974464   -1.553793   -0.944803
H     -4.702943   -0.403113    0.797177
