39

C      4.111289    0.464319    1.508415
C      4.559500   -1.045728   -0.470759
C     -4.634037    0.216806   -1.988030
C     -0.209154    2.533932   -2.505889
C     -3.049829   -1.668940    1.365454
C     -2.541217   -2.305763    2.482377
C      1.229515    0.534086    0.915140
C     -1.945913    0.733814   -1.142317
C     -2.270643   -0.782939    0.651187
C     -0.152151    0.314906    0.418044
C     -2.758753   -0.141748   -0.460773
C     -0.645488    0.957755   -0.698683
C      2.179523   -0.199645    0.027071
C     -1.233361   -2.031403    2.864461
C     -0.971735   -0.565551    1.102217
C      3.565861   -0.173012    0.259125
O     -0.769354   -2.611192    3.882088
O     -4.059921   -0.405343   -0.852201
O      0.208149    1.830770   -1.353867
O     -0.491165   -1.175394    2.168332
O      3.001014    0.788157   -0.725854
H      5.230135    0.446238    1.525106
H      3.786464    1.505129    1.649097
H      3.789270   -0.188554    2.370057
H      4.066297   -1.745014   -1.177903
H      5.219698   -0.363991   -1.053010
H      5.182390   -1.557960    0.286134
H     -4.269141   -0.284178   -2.907015
H     -4.374640    1.299543   -1.990130
H     -5.739078    0.170644   -1.961146
H     -0.801083    3.446959   -2.256230
H      0.699504    2.850376   -3.085722
H     -0.803468    1.890237   -3.201216
H     -4.050647   -1.830085    1.011293
H     -3.169767   -3.003243    3.034687
H      1.287894    0.186421    1.982839
H      1.411093    1.634099    0.976498
H     -2.318855    1.235579   -2.008168
H      1.731802   -0.960087   -0.640708
