53

C     -0.436678    3.693565    2.283006
C      0.067180    0.440079   -2.714700
C     -0.423040   -0.825440    1.479477
C     -2.285366    1.619376   -1.384213
C     -3.637525    1.620469   -1.256269
C      3.923957   -0.070948   -0.070205
C      2.117035    1.361019   -0.845688
C      2.295454   -2.240333   -0.021272
C     -1.680950   -1.953389   -0.256186
C      5.801770   -3.093618    0.640364
C     -5.909409   -1.036146   -0.154886
C     -0.137992    3.337782    0.874635
C      2.582404    0.045865   -0.442007
C      1.772903   -1.028723   -0.418529
C     -2.304922   -0.665028   -0.621294
C     -1.598839    0.427170   -1.052020
C     -4.357767    0.520994   -0.821575
C      4.466534   -1.279150    0.331471
C      3.633669   -2.380543    0.354755
C      0.614617    1.553598   -0.672984
C     -3.708688   -0.639440   -0.496582
C      0.367117   -0.948906   -0.799872
C     -0.162119    0.378089   -1.170022
N     -0.384810   -1.600514    0.285099
O     -0.245458    4.113990   -0.084976
O     -5.717334    0.277380   -0.611328
O      5.747936   -1.682355    0.749733
O      4.430489   -3.432692    0.788343
O     -4.611646   -1.608076   -0.088178
O      0.292738    2.062050    0.568944
H     -0.327182    4.778219    2.380071
H     -1.495630    3.438412    2.487620
H      0.172836    3.110917    3.001700
H      1.074877    0.113015   -2.960861
H     -0.043559    1.493137   -3.051540
H     -0.670380   -0.156981   -3.241386
H     -1.207537   -0.041256    1.501220
H      0.601702   -0.424820    1.672113
H     -0.627538   -1.454375    2.395519
H     -1.642020    2.405161   -1.708689
H     -4.184070    2.508006   -1.500137
H      4.591344    0.780035   -0.082027
H      2.396085    1.499746   -1.932467
H      2.606975    2.212883   -0.318901
H      1.648804   -3.102511   -0.001672
H     -2.237387   -2.489212    0.537808
H     -1.487819   -2.602680   -1.132002
H      6.088293   -3.419455   -0.398086
H      6.436469   -3.562031    1.415218
H     -6.386758   -1.108624    0.830269
H     -6.492108   -1.657630   -0.865995
H      0.427897    2.427781   -1.342859
H      0.245445   -1.713859   -1.638021
