39

C      6.206702   -0.071399    0.178288
C      1.991914    1.282102   -0.451558
C      1.828102   -1.052185   -0.250460
C     -5.107158   -0.006719   -0.265318
C     -3.305820   -0.847728   -1.516863
C     -1.981347    0.849985    1.610346
C      1.200365    0.175934   -0.226821
C     -4.666209   -0.676503   -1.382159
C     -2.875368    0.302815    0.545254
C     -4.256223    0.486729    0.699635
C      3.345414    1.205812   -0.691358
C      3.183343   -1.150053   -0.488990
C     -0.610996    0.219528    1.473599
C     -2.415824   -0.366702   -0.568911
C     -0.226980    0.367653    0.017865
C      3.965220   -0.036383   -0.712525
O     -5.545469   -1.169712   -2.350094
O     -4.725593    1.166947    1.831276
O      4.109431    2.344210   -0.913477
O      3.834580   -2.382224   -0.516584
O     -0.743812   -1.140864    1.805690
O      5.324002   -0.121614   -0.952621
O     -1.044139   -0.536935   -0.700378
H      5.705407   -0.665895    0.972736
H      7.201269   -0.442692   -0.075518
H      6.264482    0.993533    0.544004
H      1.554667    2.282000   -0.445719
H      1.229903   -1.927348   -0.077730
H     -6.186886    0.123511   -0.168342
H     -2.878187   -1.364266   -2.367601
H     -1.829589    1.952203    1.430699
H     -2.423953    0.667698    2.622009
H      0.123616    0.638811    2.158103
H     -0.529421    1.388628   -0.283512
H     -5.882803   -2.113699   -2.212189
H     -5.711578    1.282530    1.913985
H      3.666582    3.252299   -0.899869
H      3.306708   -3.234820   -0.358245
H     -1.094353   -1.675184    1.049031
