45

C      4.155830    1.657427   -0.186223
C      4.455933   -0.755611   -0.027072
C     -0.031661    3.029305    0.634539
C     -0.089735   -3.763474   -0.518627
C     -2.961896    1.826821   -0.238593
C     -4.323489    1.607180   -0.101201
C      1.626657    0.077816   -0.684245
C     -6.074673   -1.545966    0.245652
C     -2.105571    0.732306   -0.321656
C      0.153605   -0.062517   -0.551115
C     -4.832170    0.337375   -0.046599
C      2.255023    0.261627    0.641278
C     -2.601453   -0.537250   -0.268331
C     -0.723849    0.977858   -0.463718
C     -3.953884   -0.733153   -0.131852
C     -0.406295   -1.357741   -0.491283
C      3.759953    0.413992    0.577706
N     -1.723722   -1.557302   -0.356157
O      1.979695   -0.863080    1.427971
O      4.214500    0.578597    1.883692
O     -0.312772    2.284571   -0.515357
O      0.445759   -2.445370   -0.575527
O     -6.142495   -0.145204    0.086462
O     -4.724228   -1.876963   -0.050938
H      4.970629    2.215505    0.337823
H      3.275364    2.315193   -0.244195
H      4.540044    1.440715   -1.203005
H      5.549522   -0.657172    0.208707
H      4.146487   -1.735756    0.401199
H      4.392636   -0.761519   -1.151893
H     -0.112590    2.419149    1.566342
H      1.036837    3.379438    0.518580
H     -0.707687    3.888669    0.778914
H      0.024140   -4.202129    0.493277
H      0.435374   -4.396794   -1.262205
H     -1.183328   -3.730676   -0.787421
H     -2.566936    2.822802   -0.281602
H     -5.013261    2.430012   -0.032500
H      1.820090    0.934442   -1.376691
H      1.979255   -0.853305   -1.207750
H     -6.334129   -1.784453    1.306782
H     -6.776865   -2.071028   -0.440060
H      1.870762    1.123738    1.161835
H      2.110671   -0.612238    2.391252
H      4.503926   -0.305835    2.207583
