38

C     -3.463428   -1.036405   -0.897690
C     -3.042576   -0.086960    1.322354
C      1.619507    1.517693   -3.223506
C      2.196685   -1.019340    2.582710
C      3.362573   -1.713789    2.676027
C      0.667672    0.327982    1.309743
C     -1.020885    1.731025    0.079377
C      2.321278    0.207130   -0.826290
C      1.851081   -0.377914    1.410310
C      0.259690    0.990358    0.172035
C      1.137072    0.909518   -0.915479
C      2.685816   -0.440513    0.335129
C     -2.082971    0.950750   -0.672759
C      4.166607   -1.735377    1.538907
C     -2.400528   -0.362022   -0.009644
O     -1.690956    0.724234   -1.991198
O      5.250790   -2.363112    1.578660
O     -1.364134   -1.236490    0.066729
O      0.789682    1.550159   -2.079451
O      3.809832   -1.122042    0.456676
H     -3.590546   -2.107674   -0.564912
H     -3.143372   -1.082658   -1.946897
H     -4.429757   -0.543805   -0.769393
H     -3.768947    0.760576    1.144214
H     -3.671712   -0.934706    1.665255
H     -2.318042    0.259246    2.055772
H      1.219751    2.209576   -3.993635
H      2.607083    1.956248   -2.916637
H      1.704595    0.519028   -3.668694
H      1.520174   -0.957134    3.422756
H      3.645652   -2.218980    3.579076
H      0.053975    0.342221    2.192321
H     -0.801282    2.658227   -0.496936
H     -1.377435    2.058911    1.072444
H      2.995270    0.147889   -1.670555
H     -3.017962    1.537401   -0.709484
H     -1.330167   -0.185635   -2.136070
H     -1.350085   -1.833613    0.828734
