52

C      4.646586    1.494912   -1.293077
C     -3.857141    0.599922    1.478150
C     -3.330256    2.096541   -0.371569
C      4.310257   -1.165669    0.531393
C     -0.996991   -1.947423    0.179308
C      4.089906    1.142170   -0.131769
C      1.371367   -1.239505   -1.109301
C     -2.877947   -0.376845   -2.093739
C      2.756280   -0.606346   -1.273382
C     -1.448256   -0.680120   -1.847857
C     -1.303832    0.046843    1.831916
C      2.315701    0.073183    1.080102
C      1.001357    0.054197    0.890710
C      0.509527   -0.177475   -0.480932
C      0.143310    0.267531    2.074666
C     -1.612401    0.472616    0.394501
C     -3.633344   -0.253291   -0.825040
C     -3.055251    0.694204    0.174494
C      3.315402   -0.121218    0.014416
C     -0.960498   -0.557282   -0.470037
O      0.363027    1.553982    2.561070
O     -4.652118   -0.855278   -0.567405
H      5.203111    2.420197   -1.364924
H      4.530929    0.846986   -2.144485
H     -4.925941    0.658203    1.166515
H     -3.609865   -0.297662    2.051385
H     -3.652157    1.548736    2.020687
H     -4.138313    2.603469    0.150245
H     -3.535813    2.088720   -1.449344
H     -2.393788    2.691625   -0.198332
H      3.790311   -2.103817    0.788363
H      5.008381   -1.381296   -0.312850
H      4.846595   -0.736502    1.393359
H     -0.662317   -2.652662   -0.612619
H     -0.255234   -2.027152    0.994700
H     -2.015386   -2.236846    0.464087
H      4.199034    1.784046    0.730312
H      1.018673   -1.568629   -2.085598
H      1.505977   -2.072934   -0.389402
H     -2.973213    0.535552   -2.727800
H     -3.400317   -1.183780   -2.686157
H      2.578877    0.297161   -1.928078
H      3.452551   -1.299090   -1.770773
H     -0.803793   -0.043513   -2.522679
H     -1.261993   -1.730198   -2.223194
H     -1.661782   -0.981034    2.038499
H     -1.871212    0.702852    2.549978
H      2.721038    0.243689    2.092511
H      0.622801    0.766130   -1.053406
H      0.462437   -0.426460    2.894532
H     -1.088862    1.468980    0.290317
H      1.214588    1.569583    3.097531
