38

C     -3.787317    0.166604    1.043244
C     -3.922496   -0.119180   -1.373796
C      0.376675   -3.079457    1.608064
C      3.679526    1.809768   -0.870648
C      4.979590    1.423515   -1.110877
C      1.442826    1.305895   -0.085818
C     -0.887237    0.860720    0.703541
C      2.259411   -1.229330    0.492859
C      2.745739    0.931602   -0.330437
C      0.522517    0.431123    0.449434
C      0.954828   -0.846752    0.735384
C      3.184443   -0.343068   -0.047506
C     -1.725040    0.269001   -0.376583
C      5.329612    0.130986   -0.797497
C     -3.184953    0.606097   -0.271007
O     -1.258125    0.722191   -1.606218
O      6.522167   -0.270056   -1.002879
O     -3.398759    1.978239   -0.367115
O      0.053420   -1.764521    1.279221
O      4.437613   -0.704469   -0.282599
H     -4.890729    0.184732    0.920791
H     -3.538618    0.934229    1.804497
H     -3.495580   -0.852017    1.322662
H     -3.508869   -1.143397   -1.523774
H     -3.788483    0.417126   -2.329844
H     -4.997385   -0.235939   -1.108603
H      1.305874   -3.180803    2.220327
H     -0.447802   -3.508283    2.240973
H      0.475044   -3.733325    0.713271
H      3.344567    2.805214   -1.093826
H      5.722896    2.077664   -1.526841
H      1.182522    2.332341   -0.339430
H     -0.905032    1.958947    0.756865
H     -1.144049    0.431386    1.711776
H      2.608981   -2.230300    0.713657
H     -1.565686   -0.825668   -0.366172
H     -1.396742    0.029755   -2.270152
H     -3.285348    2.259432   -1.326153
