47

C     -2.446064   -2.072917    1.548491
C     -0.292954   -0.213889   -2.574772
C     -1.752549    0.935438    2.226657
C     -3.018661    4.213726   -0.200373
C      5.883603   -0.583431    0.197939
C      5.245712   -0.888793    1.383923
C      5.181596    0.105304   -0.751290
C     -2.799529   -2.881651   -2.054195
C     -2.951409   -2.860900   -0.693985
C     -1.938906   -1.995268   -2.616122
C      3.918165   -0.498771    1.597982
C      3.883535    0.485647   -0.538665
C      1.811844    0.620505    0.835970
C     -2.232965   -1.942087    0.097419
C     -1.237213   -1.097484   -1.850748
C     -1.046211    1.119586    0.871734
C      3.212511    0.192229    0.647508
C      0.836505   -0.285665    0.240319
C     -1.371297   -1.046635   -0.447449
C     -1.822819    2.075504    0.052138
N     -0.605014   -0.067091    0.241886
O      1.239861   -1.326854   -0.320111
O     -2.128207    1.884952   -1.147345
O     -2.276724    3.290109    0.580872
H     -3.320436   -1.575396    1.953254
H     -1.502450   -1.919935    2.114935
H     -2.659987   -3.179044    1.773239
H      0.484358   -0.901768   -2.999446
H     -0.845342    0.181079   -3.460845
H      0.134864    0.585127   -1.976434
H     -1.158494    0.245095    2.833623
H     -2.811893    0.696554    2.111105
H     -1.727853    1.924929    2.775591
H     -2.783788    4.085115   -1.272650
H     -4.083628    4.257238    0.041287
H     -2.579816    5.221389    0.064479
H      6.928277   -0.894360    0.040750
H      5.810611   -1.436363    2.129303
H      5.656030    0.353156   -1.680293
H     -3.336888   -3.576164   -2.690505
H     -3.640219   -3.571229   -0.230840
H     -1.825079   -2.019370   -3.703120
H      3.459176   -0.757459    2.535543
H      3.304441    1.037529   -1.287677
H      1.562440    0.721837    1.934891
H      1.759570    1.659655    0.440479
H     -0.116703    1.700821    1.225550
