57

C     -1.180389   -2.518517   -1.399603
C     -4.328105   -1.703100   -0.109490
C      3.817642   -3.592875    1.308938
C      4.467278    0.155394   -1.437068
C      1.374711    2.007540   -1.954537
C      1.174515    1.595621    2.636350
C     -0.908494   -2.342558    1.078631
C     -2.736285   -0.236142   -1.213617
C      1.372579   -2.172084    0.943396
C     -2.593066    2.053332   -0.740637
C     -1.533052    5.346221    0.293536
C     -1.915012   -2.362439   -0.080155
C     -2.866344   -1.230976   -0.068105
C      0.226439   -1.471984    0.763053
C     -1.929032    0.876635   -0.633242
C      2.595512   -1.578913    0.633879
C     -2.057659    3.203722   -0.203203
C      0.312331   -0.153424    0.265569
C     -0.686720    0.885060    0.039604
C      2.632623   -0.291432    0.145080
C     -0.831610    3.171934    0.458933
C      1.491905    0.451613   -0.054554
C     -0.129205    1.998726    0.590695
O      3.750131   -2.285333    0.819916
O      3.885879    0.277618   -0.158760
O      1.450115    1.724751   -0.562425
O      1.068817    1.869599    1.248125
O     -2.559129    4.491947   -0.202104
O     -0.579165    4.492833    0.879852
H     -0.539510   -3.420516   -1.290996
H     -1.911636   -2.733723   -2.182804
H     -0.522111   -1.660451   -1.609434
H     -4.952338   -0.829985    0.220233
H     -4.483441   -2.497524    0.662435
H     -4.624638   -2.007917   -1.115686
H      3.367991   -4.294085    0.559364
H      4.887398   -3.857454    1.461938
H      3.230939   -3.711280    2.261521
H      3.785674   -0.387621   -2.118361
H      4.578714    1.184091   -1.843709
H      5.491213   -0.280633   -1.408372
H      1.284646    1.099573   -2.547149
H      0.504481    2.657022   -2.110740
H      2.259939    2.642938   -2.238335
H      0.268801    2.078665    3.098417
H      2.086577    2.019483    3.090330
H      1.036690    0.524696    2.783199
H     -1.456142   -2.094345    1.983097
H     -0.515322   -3.392201    1.148416
H     -3.723765    0.202394   -1.458983
H     -2.230587   -0.650137   -2.084132
H      1.344473   -3.200959    1.330701
H     -3.558625    2.074648   -1.259402
H     -1.119252    5.871719   -0.607733
H     -2.005147    6.027796    1.005015
H     -2.490221   -3.308170    0.063742
H     -2.782012   -0.718792    0.919369
