19

C      0.894407    1.531501   -1.012510
C     -0.515787    1.397953   -0.706205
C      1.749836    0.673279   -0.507690
C     -0.035356   -0.555994    0.659400
C     -0.937984    0.429798    0.067904
C      1.401228   -0.453046    0.372014
C     -2.399126    0.362920    0.332757
N      1.981893   -1.663388   -0.181102
O     -2.901440   -0.630514    1.137232
O     -3.141426    1.204622   -0.176458
H      1.216777    2.351319   -1.662904
H     -1.230539    2.129406   -1.138497
H      2.822975    0.785548   -0.748657
H     -0.171809   -0.488748    1.788788
H     -0.463355   -1.573882    0.439250
H      1.985916   -0.288118    1.329401
H      1.965554   -1.672438   -1.221413
H      1.607754   -2.524902    0.259222
H     -3.829520   -1.015318    0.969467
