47

C      5.047588   -0.460965    1.166428
C      4.878972   -0.008381   -1.273113
C     -1.598812   -1.646137   -0.333825
C      2.420138   -0.801245    0.839481
C     -0.167182    1.990966   -0.984088
C      1.061916   -0.982304    0.890510
C     -1.420134    1.259149   -1.437745
C     -3.243437   -0.510943    1.922510
C     -1.751957   -0.442303    1.845089
C     -4.371131   -0.017745   -1.564951
C      4.416961    0.450737    0.107927
C      2.948946    0.281303    0.200183
C     -3.936161   -0.461849    0.607273
C      0.713558    0.977917   -0.323202
C     -3.432487    0.121994   -0.459529
C      0.165889   -0.107383    0.316030
C     -2.095027    0.732884   -0.228194
C      2.098512    1.187351   -0.389842
C     -5.233401   -1.014670    0.262109
C     -1.283232   -0.383311    0.421419
O      2.575242    2.322713   -1.054849
O     -6.004616   -1.653377    1.065424
O     -5.457102   -0.722448   -1.057073
H      6.084271   -0.110202    1.384027
H      5.025409   -1.500469    0.818506
H      4.484728   -0.329562    2.110829
H      5.972826    0.057491   -1.321705
H      4.542509   -1.078701   -1.445454
H      4.368837    0.571050   -2.051190
H     -2.328845   -2.292685    0.184630
H     -1.865383   -1.400712   -1.376651
H     -0.658215   -2.263711   -0.391591
H      3.074904   -1.515174    1.302456
H     -0.495711    2.734376   -0.216835
H      0.352439    2.486164   -1.801689
H      0.656232   -1.859114    1.409176
H     -1.062081    0.460650   -2.132639
H     -2.067373    1.990845   -1.935804
H     -3.488195   -1.491688    2.410916
H     -3.701392    0.255004    2.576251
H     -1.214313   -1.217608    2.399057
H     -1.435020    0.539517    2.312789
H     -4.661382    0.961439   -2.020291
H     -3.955432   -0.673226   -2.395572
H      4.713573    1.490259    0.251854
H     -2.226982    1.551029    0.491586
H      3.551558    2.523075   -1.100627
