32

C      0.929420    1.075945    1.243923
C      2.190159    0.271102    1.045852
C     -0.091072    0.870379    0.177699
C      2.865957    0.619195   -0.259172
C     -2.580935   -2.170102    0.773989
C     -2.801167   -1.345228   -0.437487
C     -0.538153   -0.547077    0.077017
C      4.111999   -0.208250   -0.400146
C     -1.559927   -0.791499   -0.976788
C     -3.124671    0.873753   -0.646360
N     -3.586511   -0.175648   -0.065713
N     -1.990701    0.530024   -1.463388
O      4.448917   -1.029447    0.482764
O      4.913419   -0.076912   -1.513689
O     -3.669422    2.141329   -0.483640
S     -1.301410   -1.146658    1.611993
H      0.480222    0.860545    2.233555
H      1.240637    2.159208    1.189744
H      2.932711    0.540906    1.852337
H      1.980806   -0.799466    1.103541
H      0.357527    1.139424   -0.814835
H     -0.951679    1.563411    0.283522
H      2.215821    0.384070   -1.133132
H      3.161142    1.668092   -0.305342
H     -3.513930   -2.192796    1.370349
H     -2.181389   -3.158209    0.523494
H     -3.321332   -1.917464   -1.258743
H      0.380107   -1.188761   -0.072568
H     -1.162897   -1.343461   -1.852440
H     -1.604941    1.112867   -2.209609
H      5.928251   -0.158077   -1.458332
H     -4.156956    2.438806    0.354341
