43

C     -7.629887    0.094099    0.421208
C      6.870054    1.584862   -0.342886
C      5.589564    1.045861   -0.204638
C      7.922055    0.746328   -0.110037
C     -0.240982   -1.186120    0.332438
C     -0.429748    1.060198   -0.323928
C      1.141739   -1.087233    0.324834
C      0.948359    1.165038   -0.333358
C      6.467167   -1.072553    0.373308
C     -5.648476    0.582576   -0.748328
C     -3.453027    0.741086    0.444909
C      4.021078   -0.791339    0.281368
C      5.389235   -0.260022    0.147282
C      7.741205   -0.572420    0.245563
C     -1.054857   -0.122232    0.010429
C      1.744901    0.097312   -0.010584
C     -4.780206    0.047109    0.369402
C     -3.193349   -1.389541   -0.413814
Cl     9.116421   -1.606463    0.533599
N     -6.877581   -0.198806   -0.767642
N     -2.500494   -0.237495    0.019944
O     -2.718303   -2.274503   -1.176879
O      3.097683    0.206505   -0.022021
O     -4.464527   -1.316543    0.174561
H     -7.753051   -0.830220    1.021012
H     -7.149626    0.886123    1.001954
H     -8.625841    0.488993    0.081407
H      7.000505    2.624162   -0.622939
H      4.739148    1.683338   -0.381997
H      8.929700    1.169594   -0.218671
H     -0.731351   -2.124247    0.597662
H     -1.088802    1.895258   -0.576171
H      1.764500   -1.926070    0.578326
H      1.388692    2.121373   -0.605310
H      6.353244   -2.098947    0.649858
H     -5.126734    0.362622   -1.703454
H     -5.852016    1.646671   -0.655904
H     -3.239135    1.139783    1.463449
H     -3.415390    1.577324   -0.306484
H      3.898061   -1.710357   -0.330088
H      3.827130   -1.119076    1.337212
H     -5.275643    0.165799    1.361642
H     -6.701414   -1.207827   -0.848035
