55

C      7.767681   -1.686686   -0.599464
C     -3.327033    0.561219    1.520032
C     -6.121826    1.904177   -0.372400
C      7.577569   -0.236892   -0.962593
C      6.544367    1.977666    1.874597
C      7.250022    1.281091    0.927676
C      5.157037    1.805015    1.859212
C     -2.326573    1.233291   -1.671805
C     -0.058768   -1.986393   -0.113810
C     -1.328991   -1.738853    0.366982
C     -3.795344    1.016201   -1.710445
C     -5.555036   -1.603820    1.080785
C     -4.080769   -1.677375    0.928113
C     -0.275841   -0.149590   -1.596327
C      6.676964    0.456877    0.005023
C     -1.552818    0.091051   -1.105695
C      0.477321   -1.174202   -1.116180
C     -2.090737   -0.702174   -0.119256
C      4.596646    0.986023    0.941128
C     -4.367839    0.086689   -0.717430
C     -6.156286   -0.277079    0.894365
C      5.290930    0.261374   -0.038320
C      3.380582   -0.643381   -0.873097
C     -3.453989   -0.398047    0.360139
N      4.580980   -0.465396   -0.824094
N     -5.568218    0.600308   -0.066319
O     -7.166207    0.129272    1.538934
S      2.120935   -1.498625   -1.740088
S      2.887188    0.485609    0.570690
H      8.690473   -2.100493   -1.042620
H      7.846089   -1.816468    0.519993
H      6.916876   -2.326274   -0.910834
H     -3.097169   -0.051235    2.422438
H     -2.476416    1.262402    1.408571
H     -4.232467    1.131355    1.728514
H     -7.100934    1.983403    0.165269
H     -6.319629    2.047590   -1.453208
H     -5.457821    2.732337   -0.044195
H      7.129586   -0.196457   -1.976993
H      8.558470    0.268121   -0.953698
H      6.978002    2.620800    2.596430
H      8.341916    1.422295    0.946175
H      4.553778    2.339580    2.594408
H     -1.957602    1.366835   -2.722985
H     -2.037997    2.195812   -1.168259
H      0.577952   -2.786855    0.235162
H     -1.702125   -2.390917    1.140257
H     -4.284004    2.022625   -1.554107
H     -4.108475    0.742483   -2.760830
H     -5.848452   -1.944140    2.114000
H     -6.062194   -2.349943    0.402866
H     -3.584787   -1.964588    1.890655
H     -3.813769   -2.508106    0.214761
H      0.129102    0.495218   -2.380452
H     -4.720349   -0.832729   -1.272519
