29

C      3.071257    0.818595   -0.901251
C      2.877842   -0.767005    0.908913
C     -3.417326    0.391555   -0.016397
C     -1.240536    1.297867    0.602447
C      0.158420    0.849171    1.044747
C     -1.369128   -0.736786   -0.772336
C      2.253241    0.133179   -0.098023
C     -2.022373    0.018031    0.357619
C      0.799072    0.259699   -0.200946
C      0.084848   -1.023003   -0.514535
O      0.613805   -1.631485   -1.638628
H      4.144082    0.743801   -0.846412
H      2.635337    1.482830   -1.644955
H      2.183622   -1.609121    1.112326
H      3.828572   -1.189695    0.496443
H      3.083303   -0.193888    1.826259
H     -3.715600    1.268698    0.630901
H     -4.124110   -0.437099    0.149843
H     -3.434128    0.748677   -1.059658
H     -1.712231    1.964061    1.319743
H     -1.104156    1.764323   -0.405331
H     -0.030011    0.058750    1.817369
H      0.734398    1.683974    1.466748
H     -1.924688   -1.710727   -0.859935
H     -1.519276   -0.212238   -1.723899
H     -2.000474   -0.608273    1.281682
H      0.551387    0.983808   -1.029113
H      0.160743   -1.734593    0.352699
H      0.434106   -2.613105   -1.656319
