44

C     -5.950378    0.803692    0.290230
C      6.164024    1.046787    0.530990
C      4.923790    1.568789    0.817152
C      6.282649   -0.131743   -0.179957
C     -2.405421    1.140199    0.394302
C     -3.108374   -1.277496    0.102277
C     -4.650590    0.524184   -0.375219
C      3.796949    0.892719    0.380403
C     -1.058876    0.572969    0.070353
C      5.169156   -0.808783   -0.616972
C     -2.184109   -1.249437   -1.078724
C      3.934571   -0.278259   -0.325511
C     -0.927244   -0.591242   -0.632654
C      1.305522    0.734744    0.224450
C      1.431870   -0.440246   -0.484180
C      2.499730    1.456303    0.690379
C      0.037437    1.270329    0.518459
C      2.745919   -0.991352   -0.786183
C      0.314377   -1.127927   -0.927975
C     -3.491743    0.111520    0.479348
O     -4.565854    0.637334   -1.582304
O      5.246956   -1.977776   -1.323130
O     -1.956584   -2.501606   -1.624538
O      2.355403    2.527997    1.336000
O      0.014440    2.450647    1.230077
O      2.832957   -2.057283   -1.429693
O      0.311762   -2.284083   -1.628812
O     -3.925053    0.092206    1.833408
H     -6.568745    1.534233   -0.270795
H     -5.730927    1.223911    1.298092
H     -6.483630   -0.178201    0.419062
H      7.079360    1.532892    0.847564
H      4.849326    2.497119    1.377627
H      7.248623   -0.550262   -0.410080
H     -2.628956    1.888217   -0.411583
H     -2.314934    1.680335    1.356503
H     -2.662093   -1.779703    0.985838
H     -4.031483   -1.807011   -0.220059
H     -2.624505   -0.587427   -1.848570
H      6.144754   -2.391250   -1.551846
H     -2.794828   -2.731253   -2.138403
H     -0.826161    2.921161    1.481108
H      0.939471   -2.915627   -1.996463
H     -4.738561   -0.450322    1.919575
