31

C     -4.449068    1.070657    1.500104
C     -3.082654    0.380956    1.608304
C      2.311928   -1.060850   -1.517562
C      3.409516   -1.554117   -0.860292
C      0.343433    0.455315   -1.696011
C      1.885181    0.411099    0.262079
C      1.515640   -0.064453   -0.979223
C     -0.937570   -0.273439   -1.415391
C      3.759613   -1.060947    0.383581
C      2.983711   -0.066823    0.945034
C     -1.346771   -0.258578   -0.018819
N     -1.964245    0.329943   -2.238802
O      4.888476   -1.578430    1.043486
O      3.362313    0.409659    2.199804
O     -0.653564   -0.728567    0.931289
O     -2.569146    0.301054    0.312203
H     -4.800129    1.274206    2.514287
H     -4.408825    1.931742    0.831579
H     -5.142754    0.328269    1.011721
H     -3.215107   -0.651407    1.993116
H     -2.424953    0.917620    2.323052
H      2.030090   -1.442458   -2.494394
H      4.022221   -2.333846   -1.295285
H      0.229420    1.534192   -1.384774
H      0.565277    0.438982   -2.781917
H      1.311441    1.176639    0.723424
H     -0.799367   -1.340449   -1.753634
H     -1.815779    1.375851   -2.162190
H     -2.898651    0.122603   -1.814351
H      5.106835   -1.183773    1.957688
H      2.783491    1.139351    2.599669
