21

C      2.744866    0.303832    0.108792
C      2.018460   -0.424115    1.028853
C      2.052401    0.860173   -0.947031
C      0.653526   -0.602791    0.919265
C      0.687317    0.679450   -1.053495
C     -0.045153   -0.045514   -0.139757
C     -1.505522   -0.207032   -0.301890
C     -2.263639    0.744178    0.571880
Cl    -1.890388    2.451829    0.447294
N     -1.934386   -1.572111   -0.074820
O     -3.109629    0.385417    1.347459
Cl     0.691041    0.000000    0.000000
H      3.817077    0.426151    0.222762
H      2.567648   -0.860564    1.858822
H      2.613667    1.432691   -1.673472
H      0.079725   -1.171276    1.635962
H      0.123206    1.116828   -1.889064
H     -1.758364    0.069631   -1.344763
H     -1.924954   -2.068468   -0.970952
H     -2.925858   -1.518311    0.254156
H     -0.691041    0.000000    0.000000
