21

C      2.696161   -0.030103    0.021428
C      2.070215   -0.551950   -1.099533
C      1.911641    0.502137    1.033691
C      0.707978   -0.526867   -1.173850
C      0.549556    0.513116    0.930649
C     -0.095109   -0.003059   -0.180471
C     -1.582876    0.000137   -0.310925
C     -2.190120   -1.155558    0.385217
Cl    -3.476568   -0.917446    1.536481
N     -2.158425    1.254318    0.065923
O     -1.811029   -2.293411    0.174544
Cl     0.684401    0.000000    0.000000
H      3.766945   -0.065309    0.048293
H      2.650733   -0.983425   -1.925259
H      2.433842    0.896920    1.886183
H      0.245830   -0.944367   -2.067114
H     -0.026553    0.933978    1.735170
H     -1.802344   -0.139206   -1.403001
H     -1.945798    1.946904   -0.678379
H     -1.944077    1.563192    1.020954
H     -0.684401    0.000000    0.000000
