39

C      6.267682    0.185810   -0.391156
C      0.813317   -3.526812   -0.447338
C     -3.423392    0.617839    1.768296
C     -4.739240    0.986184    1.687527
C      3.379231    0.934710   -0.259750
C      2.028280    1.182659   -0.198007
C     -1.117859    0.257671    0.939632
C     -4.336801    1.458657   -0.629796
C      2.870392   -1.373441   -0.396819
C     -1.039232    0.174848   -1.606885
C     -2.526126    0.652253    0.692562
C     -0.336726    0.461946   -0.327835
C     -5.194001    1.420090    0.435934
C      3.846120   -0.362950   -0.358755
C      1.074860    0.162495   -0.242273
C     -2.996254    1.084295   -0.547796
C      1.540978   -1.153741   -0.342389
O     -6.526784    1.799223    0.347279
O      5.188708   -0.712414   -0.417370
O      0.540498   -2.128496   -0.369762
O     -2.144947    1.126225   -1.661759
H      5.986655    1.115319    0.189392
H      6.570337    0.514948   -1.377447
H      7.107378   -0.250870    0.213473
H     -0.002597   -3.967122   -1.046493
H      0.704889   -3.900575    0.627973
H      1.790732   -3.789768   -0.813437
H     -3.048325    0.281814    2.746049
H     -5.423925    0.951454    2.537352
H      4.077078    1.752173   -0.252417
H      1.749358    2.241467   -0.119592
H     -0.685194    0.823427    1.733211
H     -1.185818   -0.835824    1.206920
H     -4.690523    1.807672   -1.608538
H      3.223301   -2.400493   -0.469446
H     -1.424137   -0.819671   -1.745550
H     -0.353661    0.490795   -2.451811
H     -0.349006    1.664083   -0.351258
H     -7.215248    1.074121    0.101473
