54

C      5.778097   -0.064442    1.867081
C     -5.027801   -1.281239   -2.318866
C     -2.550739    2.392660    1.979092
C     -1.444714    0.325823    2.883990
C      6.213245   -0.165204    0.431785
C      5.510220   -1.267426   -0.311727
C      4.024320   -1.098009   -0.347153
C      3.631680    0.196834   -1.024702
C     -3.019029    0.021900   -1.674820
C      1.364613   -0.204818   -2.025658
C      1.508168    0.900265    0.049552
C     -3.927865    0.466034    0.873347
C     -4.137539   -0.627916   -1.323635
C      2.133582    0.289590   -1.018737
C     -2.103004    0.679314   -0.769514
C     -2.448452    0.301693    0.662110
C     -4.562341   -0.712680    0.117219
C     -0.033660   -0.093689   -1.974587
C      0.137527    1.002244    0.086749
C     -0.676145    0.500540   -0.939534
C     -1.720296    1.172760    1.658389
O     -4.021112   -1.874117    0.630833
O     -0.740212   -0.611441   -3.016280
O     -0.466032    1.618424    1.170032
H      5.432232    0.947515    2.095457
H      4.983776   -0.792479    2.135315
H      6.645296   -0.285545    2.553228
H     -5.787647   -0.605521   -2.730485
H     -4.420065   -1.716522   -3.155248
H     -5.576680   -2.128771   -1.840912
H     -3.430262    2.114538    2.593021
H     -1.975352    3.125969    2.558393
H     -2.868572    2.834320    1.014368
H     -1.155582   -0.687945    2.497633
H     -2.388794    0.168761    3.453753
H     -0.659486    0.756421    3.525411
H      7.300987   -0.392752    0.397842
H      6.038342    0.792757   -0.102348
H      5.906766   -1.251121   -1.358094
H      5.743461   -2.250788    0.148349
H      3.600446   -1.119590    0.672104
H      3.607162   -1.924866   -0.960392
H      4.010804    1.033731   -0.433654
H      4.025683    0.225119   -2.037191
H     -2.854749    0.031306   -2.747165
H      1.836863   -0.683287   -2.864449
H      2.147993    1.288204    0.843611
H     -4.226307    0.361919    1.917457
H     -4.262760    1.421775    0.444157
H     -2.304589    1.792910   -0.827612
H     -2.131514   -0.733134    0.817295
H     -5.652301   -0.626837    0.242185
H     -4.692143   -2.509720    0.976039
H     -0.315517   -1.053469   -3.792102
