58

C     -7.836097    1.798941    2.138913
C     -5.390594   -1.656586   -1.449244
C      4.429821    2.663284   -2.986559
C      4.707909   -3.414351    1.113807
C      7.361187   -0.108234   -0.731387
C     -3.621105    1.569493    1.907163
C     -5.010873    1.655205    1.994055
C     -3.863770   -0.050588    0.224930
C      3.046246    0.834113   -1.105339
C      3.134542   -1.133235    0.224777
C     -0.618609   -0.241149   -1.244520
C     -0.119535   -0.505073    2.225863
C     -3.045463    0.699904    1.005386
C      2.418999   -0.045082   -0.217405
C     -1.098397   -0.599319    0.129119
C      0.270707   -0.819633    0.807290
C     -5.823941    0.882845    1.190962
C     -5.247142    0.009057    0.284725
C      4.324502    0.663395   -1.549195
C      4.428646   -1.336812   -0.203475
C     -1.574051    0.583572    0.887586
C      1.044495    0.294911    0.159336
C      5.008652   -0.440358   -1.082441
O     -7.205512    0.923560    1.231034
O     -6.013060   -0.778055   -0.534317
O      4.964247    1.506014   -2.416897
O      5.144340   -2.418776    0.233921
O      6.314374   -0.670530   -1.496525
O     -0.952998    0.574053    2.130859
O      0.361508    0.702377   -0.970124
H     -8.924857    1.801807    1.854303
H     -7.759263    1.411115    3.182150
H     -7.402082    2.817139    2.138259
H     -6.188646   -2.218076   -1.963662
H     -4.742994   -2.371592   -0.922113
H     -4.850801   -1.026363   -2.181064
H      5.258886    3.388805   -3.168486
H      3.646894    3.148724   -2.402428
H      4.049792    2.384468   -4.009956
H      4.946831   -3.129462    2.175441
H      3.611612   -3.567179    1.059469
H      5.250123   -4.382911    0.959014
H      6.974285    0.384277    0.193368
H      7.945492    0.625083   -1.307267
H      8.070108   -0.901307   -0.418358
H     -3.007520    2.184644    2.547026
H     -5.465460    2.338212    2.701621
H     -3.441411   -0.733800   -0.489342
H      2.513258    1.715720   -1.484749
H      2.640416   -1.800786    0.910265
H     -0.111711   -1.097759   -1.733393
H     -1.409234    0.201578   -1.879737
H     -0.672848   -1.395640    2.612345
H      0.764655   -0.271852    2.857826
H     -1.709307   -1.508214    0.190138
H      0.639922   -1.823294    0.630562
H     -1.222468    1.522694    0.378983
H      1.057299    1.161027    0.884073
