76

C      2.169032   -4.113820   -2.403159
C      5.425168    2.143132    3.580657
C     -6.327542   -1.489352    2.182397
C      0.088175    3.426813   -1.644726
C     -0.324004    3.434031    0.685945
C      4.843410   -0.870161    0.839163
C      1.471506    3.241358   -1.372982
C      1.079301    3.247229    0.912378
C      5.051731    0.112121    1.771184
C     -5.464620    2.611729   -0.665802
C      1.564132   -4.442660    0.922006
C     -5.140202    3.078715   -2.037511
C      2.279258   -5.075634   -0.217894
C     -2.299060    3.600025   -0.864849
C      3.975309   -1.982926   -1.090860
C      3.656891    0.571127   -0.685305
C     -0.461770   -3.102574    0.892729
C     -5.256114    0.481727    0.546323
C      0.832396   -1.190466   -0.797510
C     -0.797175    3.516350   -0.597175
C      4.155265   -0.662828   -0.378663
C      0.824262   -3.240219    0.484709
C     -4.655470    1.440917   -0.281114
C      1.946473    3.149270   -0.104264
C      1.498050   -2.281357   -0.369505
C     -2.857033    2.390844   -1.586045
C      2.883167   -2.788823   -0.518977
C      4.529284    1.340638    1.432910
C      3.850812    1.561608    0.245577
C     -1.128995   -1.972256    0.447476
C     -0.512148   -1.046965   -0.367171
C     -4.479676   -0.590593    0.903281
C     -3.352043    1.316533   -0.716590
C     -3.165385   -0.741262    0.480824
C     -2.584220    0.205403   -0.331996
N     -3.858374    2.746474   -2.542704
N      2.808378   -4.109238   -1.114827
O      4.740864    2.364733    2.391130
O     -5.013829   -1.577578    1.721473
O      3.370293    2.928103    0.129285
O     -2.454923   -1.864939    0.898327
O     -1.307920    0.029959   -0.723303
H      2.876894   -4.283130   -3.237689
H      1.526161   -3.233525   -2.598453
H      1.470786   -4.991802   -2.415140
H      5.242733    3.041782    4.231144
H      6.506949    1.977635    3.479314
H      4.935973    1.287373    4.123935
H     -6.593818   -2.484393    2.614196
H     -6.337082   -0.720246    2.996778
H     -7.057355   -1.205808    1.406114
H     -0.029905    3.484796   -2.770778
H     -0.819196    3.494297    1.698620
H      5.244236   -1.874220    1.075965
H      2.053121    3.208561   -2.344495
H      1.277488    3.223195    2.031156
H      5.581704   -0.058631    2.697361
H     -6.560615    2.343289   -0.580728
H     -5.340595    3.393312    0.129881
H      2.285569   -4.211855    1.745163
H      0.794460   -5.172222    1.322686
H     -5.913953    2.617444   -2.723203
H     -5.372798    4.180559   -2.122549
H      3.158737   -5.658812    0.183985
H      1.661149   -5.841204   -0.745090
H     -2.975609    3.667695   -0.020519
H     -2.542047    4.533305   -1.441325
H      4.931433   -2.613046   -0.879695
H      3.939646   -2.022594   -2.165678
H      3.168607    0.791481   -1.692251
H     -0.972672   -3.817350    1.532992
H     -6.283138    0.598615    0.875724
H      1.201908   -0.387476   -1.497592
H     -2.009861    1.947821   -2.202094
H      3.273567   -3.086854    0.553647
H     -3.925132    2.076822   -3.316223
