39

C     -0.228359   -1.104193   -0.441282
C     -1.523149   -1.459387   -0.812546
C     -1.092676    0.867853    0.507004
C      2.445001   -0.298586   -0.030775
C      0.003183    0.077315    0.230442
C     -2.611452   -0.661290   -0.530839
C     -2.374268    0.518566    0.140757
C      1.372960    0.514897    0.656604
N      3.724230    0.245133    0.399893
O     -3.914695   -1.006736   -0.897997
O     -3.472890    1.342291    0.434904
O      1.462413    1.866661    0.308316
C     -0.446406   -0.571890   -0.020321
C      0.613587    0.417687   -0.509416
C     -1.674355   -0.284338   -0.790619
C      1.909722    0.208316    0.151348
O     -0.633374   -0.365991    1.343142
O      0.195991    1.707601   -0.285810
O     -1.655502   -0.426199   -2.033243
O     -2.824241    0.131195   -0.177169
O      2.478310    1.126422    0.802026
O      2.561464   -1.008656    0.086426
H      0.602944   -1.747249   -0.674852
H     -1.707797   -2.383160   -1.338221
H     -0.897460    1.807607    1.042793
H      2.376591   -1.353275    0.238664
H      2.346737   -0.136129   -1.112964
H      1.456928    0.453460    1.752746
H      4.487160    0.031980   -0.249574
H      3.902836    0.042500    1.388742
H     -4.124773   -1.863558   -1.390977
H     -3.278418    2.216845    0.935304
H      1.044953    2.028457   -0.556142
H     -0.102123   -1.603069   -0.165370
H      0.683109    0.279696   -1.619563
H     -1.097914   -1.101364    1.775987
H      0.001954    1.928995    0.641197
H     -3.558683    0.658413   -0.650767
H      3.548463   -1.096820    0.291366
