43

C      4.305538   -1.324318   -1.746880
C     -2.754765   -3.323677    1.021835
C      1.649252   -1.156269    1.768316
C      2.178490   -1.855407    0.759259
C     -1.087044    2.819627   -0.603450
C      1.248205    1.278999    2.236989
C      0.351867    2.665581   -0.961469
C      0.702462    2.383563    1.408084
C     -2.993313    1.305932   -0.283722
C     -1.410952   -0.779279    0.383253
C      1.279249   -0.268242   -0.967106
C     -1.630232    1.471445   -0.256938
C      1.227321    0.205824    1.466655
C      2.310424   -1.249149   -0.559999
C     -0.807076    0.420530    0.080558
C     -3.612505    0.122220    0.013640
C     -2.788444   -0.948658    0.356791
C      0.674747    0.546154    0.124020
N      1.044256    1.947093    0.069390
O     -5.000221   -0.033703   -0.017143
O      3.581825   -0.690019   -0.769440
O     -3.415085   -2.139348    0.655714
H      5.280794   -0.801925   -1.823311
H      3.760060   -1.234091   -2.727263
H      4.422977   -2.410976   -1.557342
H     -3.389892   -4.215206    0.768141
H     -2.610230   -3.331566    2.135947
H     -1.801581   -3.462114    0.495684
H      1.534774   -1.566800    2.771240
H      2.492339   -2.872659    0.982304
H     -1.269089    3.571654    0.163578
H     -1.632185    3.133586   -1.531997
H      1.575271    1.396674    3.253868
H      0.442734    2.087758   -1.898248
H      0.846877    3.651714   -1.071271
H      1.200519    3.350615    1.606744
H     -0.362289    2.455383    1.609192
H     -3.621655    2.160122   -0.555876
H     -0.846717   -1.667134    0.661405
H      0.466541   -0.769510   -1.571832
H      1.740365    0.448497   -1.698769
H      2.257238   -2.104305   -1.300517
H     -5.540847    0.781384   -0.273685
