61

C      6.192437    2.101459   -2.451848
C     -5.428249    1.166600   -0.427305
C     -3.872465    2.374772   -1.677451
C     -4.458333    0.239898   -2.409850
C      5.989490    2.059743   -0.983016
C      4.818792    1.233025   -0.579433
C      4.974782   -0.188215   -0.984180
C      3.775747   -1.028163   -0.569929
C      3.549448   -1.049511    0.902742
C      2.366371   -1.900755    1.251278
C      1.090677   -1.422053    0.649275
C      0.693213   -0.025837    1.094122
C      0.507174    0.021639    2.604165
C     -0.562773   -0.940755    3.060579
C     -3.947564   -1.782856   -0.115839
C     -3.099274    0.536600   -0.509119
C     -3.407628   -0.552639    0.504036
C     -4.233957   -2.802595    0.912512
C     -1.869450   -0.592768    2.439307
N     -4.248349    1.022406   -1.218710
O     -4.063127   -2.633913    2.144309
O     -4.732522   -4.064711    0.553034
O     -2.755825   -0.031279    3.108694
O     -2.140214   -0.879127    1.105669
H      5.814837    3.084567   -2.871348
H      7.296995    2.112075   -2.694447
H      5.665707    1.318308   -2.991547
H     -6.161871    0.364412   -0.492408
H     -5.973102    2.087587   -0.791471
H     -5.128335    1.419895    0.615472
H     -4.753550    2.833457   -2.186167
H     -3.118010    2.197378   -2.471925
H     -3.461031    2.978145   -0.864939
H     -5.495951   -0.128128   -2.451640
H     -3.697269   -0.590563   -2.492188
H     -4.304775    0.828789   -3.355389
H      6.904591    1.621659   -0.503023
H      5.904940    3.086266   -0.558918
H      3.870161    1.620154   -1.011665
H      4.698604    1.362544    0.522566
H      5.858496   -0.672038   -0.475739
H      5.098771   -0.291643   -2.056831
H      3.921045   -2.054058   -0.931932
H      2.888411   -0.615929   -1.094406
H      3.391913   -0.000392    1.241601
H      4.463213   -1.481656    1.390367
H      2.522079   -2.945620    0.904909
H      2.281984   -1.973504    2.360737
H      1.176418   -1.415147   -0.453099
H      0.277617   -2.150253    0.868776
H     -0.200664    0.264855    0.548424
H      1.509155    0.672478    0.861550
H      0.155643    1.049725    2.843468
H      1.465057   -0.133067    3.094083
H     -0.336113   -1.989212    2.786688
H     -0.616089   -0.819498    4.173235
H     -4.884959   -1.632599   -0.688196
H     -3.146811   -2.226845   -0.770046
H     -2.603367    1.360078    0.039320
H     -2.374069    0.155636   -1.267575
H     -4.048071   -0.158817    1.286933
