49

C     -2.537697    1.674973    2.036586
C     -2.917666    1.045857    0.744018
C      4.919877   -0.989010   -0.238387
C      4.719325    0.082800   -1.096583
C     -2.909634   -1.413364   -0.993776
C      3.849311   -1.495797    0.467526
C      3.444684    0.646653   -1.246944
C      0.854173   -2.187247    1.821230
C     -2.346702   -0.056282   -1.336202
C     -1.712651   -2.257378   -0.537524
C     -0.561793   -2.588399    1.566581
C     -0.965061    1.768529   -0.499999
C      2.596611   -0.940086    0.318438
C      1.366178   -1.203951    0.858339
C      2.389934    0.126423   -0.533613
C      0.455750   -0.309346    0.333142
C     -0.941513   -0.370245    0.742306
C      1.057386    2.831533   -1.206642
C     -1.748115    0.541934   -0.088494
C      0.322688    1.519571   -1.188442
N     -1.346539   -1.743540    0.755331
N      1.068353    0.494486   -0.506434
O      1.408689    3.423275   -2.239161
O      1.366419    3.426026    0.012678
O      0.188196    1.161985   -2.526570
H     -1.476404    1.904382    2.181898
H     -3.196373    2.545536    2.304892
H     -2.773164    0.927751    2.854017
H     -3.675960    0.255108    0.944459
H     -3.494351    1.826141    0.174723
H      5.927931   -1.373171   -0.171887
H      5.551165    0.493303   -1.659310
H     -3.376093   -1.891335   -1.900996
H     -3.634872   -1.407346   -0.185089
H      3.988775   -2.322394    1.133264
H      3.297886    1.480294   -1.918117
H      1.540295   -3.067351    1.788808
H      0.942099   -1.808589    2.880592
H     -1.643347   -0.211868   -2.156767
H     -3.205853    0.594686   -1.615727
H     -2.109483   -3.281799   -0.395008
H     -0.908684   -2.262933   -1.274222
H     -0.522387   -3.599375    1.060283
H     -1.039448   -2.827974    2.562971
H     -1.621032    2.323387   -1.231860
H     -0.751133    2.390587    0.388891
H     -1.021261   -0.029262    1.817371
H      1.632663    4.423166    0.014660
H     -0.451173    1.729659   -3.015250
