38

C     -3.668643    0.804869   -0.400370
C      3.605370   -1.498029    0.492127
C     -0.782637    0.123137    1.989051
C      2.218913   -1.436498    0.398668
C     -2.162265   -0.411864    1.622828
C      4.376896   -0.428378    0.043779
C     -0.277665    0.880421    0.786360
C     -0.267851    0.241271   -1.638625
C     -1.731576    0.561637   -1.700575
C      2.369841    0.699346   -0.562791
C     -0.694736   -1.430717   -0.028411
C      1.568356   -0.339771   -0.129679
C     -2.114069   -0.939770    0.184691
C      3.733790    0.666871   -0.482571
C      0.126090   -0.188996   -0.237533
N     -2.570621   -0.024220   -0.768113
O      4.496353    1.743135   -0.931282
H     -4.257149    1.009178   -1.339678
H     -4.378166    0.335079    0.304279
H     -3.306498    1.781215   -0.076506
H      4.100109   -2.358776    0.913052
H     -0.817034    0.832163    2.835754
H     -0.080998   -0.690603    2.263625
H      1.651907   -2.265121    0.749584
H     -2.856580    0.434378    1.720694
H     -2.470440   -1.206016    2.327035
H      5.457181   -0.448371    0.105707
H     -1.005000    1.590733    0.411823
H      0.624145    1.451860    1.107524
H      0.351515    1.042415   -2.036141
H     -0.109266   -0.670089   -2.288128
H     -2.077836    0.314002   -2.745841
H     -1.819885    1.680551   -1.647299
H      1.944556    1.614960   -0.991756
H     -0.397273   -2.065471    0.801317
H     -0.729668   -2.040460   -0.970449
H     -2.760572   -1.849468    0.165695
H      4.711408    2.485397   -0.247845
