43

C      4.154812   -0.631108   -0.427991
C     -4.100199    0.811300   -0.416050
C      4.214018    0.785316    0.132602
C     -4.209269   -0.674132   -0.288157
C      2.962092   -1.296508    0.261441
C     -2.887013    1.258195    0.377217
C      2.861532    1.387935    0.324135
C     -2.965039   -1.415730   -0.636926
C      0.042685   -0.020133    1.405776
C     -0.603715   -1.545351   -0.373511
C      0.623974    1.483453   -0.497248
C      0.547899   -1.135813    0.526769
C     -0.445998    1.068474    0.484169
C      1.726449   -0.650108   -0.285876
C     -1.680463    0.584248   -0.248168
N      1.827446    0.750155   -0.405721
N     -1.802992   -0.827176   -0.081072
H      5.065676   -1.183386   -0.185363
H      3.925872   -0.564012   -1.496666
H     -4.987869    1.268800    0.081858
H     -4.049404    1.144087   -1.474646
H      4.893417    1.423647   -0.492943
H      4.768197    0.682760    1.111749
H     -5.025257   -1.027717   -0.975474
H     -4.583447   -0.911102    0.736964
H      3.033777   -1.230828    1.356298
H      2.971716   -2.358095   -0.095467
H     -2.836552    2.354165    0.305782
H     -2.991905    0.907919    1.403398
H      2.680357    1.478579    1.413574
H      2.927144    2.454175   -0.044535
H     -3.065732   -2.451088   -0.195432
H     -2.894781   -1.597056   -1.738667
H     -0.874039   -0.424008    1.922956
H      0.730122    0.304757    2.173416
H     -0.784258   -2.629436   -0.346737
H     -0.311182   -1.281742   -1.427968
H      0.220997    1.379608   -1.545819
H      0.870276    2.574252   -0.407476
H      0.821309   -2.013348    1.149140
H     -0.684982    1.947388    1.106671
H      1.575819   -1.078416   -1.320724
H     -1.661491    0.897082   -1.311503
