43

C     -4.813249    2.045025   -0.344579
C     -3.892801    1.014220    0.290844
C      1.747665   -2.873709    2.065803
C      0.386522   -3.005142    2.003410
C      2.432640   -1.875273    1.402335
C      2.185379    2.229218   -1.219018
C      3.556259    2.320539   -1.217244
C     -1.852392   -2.256396    1.223668
C     -2.672194    0.760309   -0.539202
C     -2.402326   -1.519645    0.035874
C      0.093047    1.122888   -0.547135
C     -0.374784   -2.101326    1.238076
C      1.577013    1.159368   -0.585504
C      1.692292   -0.986204    0.653459
C     -0.459482   -0.213293   -0.342916
C      4.334829    1.381198   -0.607690
C      0.307366   -1.095908    0.565987
C      2.321632    0.176260    0.047159
C      3.711408    0.304146    0.026522
N     -1.830532   -0.196174    0.074355
O      5.712938    1.426238   -0.577547
O      4.487813   -0.647358    0.641378
H     -5.853144    1.769977   -0.074386
H     -4.693471    2.089359   -1.444374
H     -4.603796    3.014151    0.154547
H     -3.555845    1.368469    1.287139
H     -4.435742    0.073491    0.452326
H      2.306649   -3.599502    2.672488
H     -0.176665   -3.770568    2.511037
H      3.486091   -1.880256    1.533620
H      1.572392    2.984325   -1.706670
H      4.012097    3.185972   -1.728323
H     -2.117502   -3.331600    1.221600
H     -2.309088   -1.745844    2.123445
H     -2.991392    0.348426   -1.541333
H     -2.141725    1.705359   -0.805973
H     -3.479305   -1.505210   -0.021950
H     -1.991273   -2.085001   -0.869582
H     -0.245456    1.502834   -1.541327
H     -0.265291    1.889306    0.177421
H     -0.482081   -0.816183   -1.326658
H      6.227669    2.193318   -1.024369
H      5.487836   -0.559802    0.630257
