45

C      5.312383   -0.573724   -1.916947
C      1.333892   -3.935155   -0.057620
C     -2.188100    0.120299    2.110056
C     -3.286059   -0.681774    2.397785
C      1.540607    2.599806   -0.669068
C     -2.122121   -0.814106   -0.038071
C      2.952435    0.589713   -1.009916
C      0.924109   -1.037204   -0.066852
C     -0.152256    4.408349   -0.188169
C     -5.211887   -2.663750    0.056571
C     -1.571752    0.079454    0.881802
C      1.752793    1.152548   -0.547066
C      0.575769    3.146461    0.292334
C      0.758107    0.338381   -0.080761
C     -3.805335   -1.548383    1.477821
C      3.083719   -0.782042   -0.980327
C      2.103142   -1.631164   -0.521574
C     -3.207884   -1.610913    0.240095
C     -0.444009    0.933174    0.522301
C     -0.535040    2.238995    0.622221
C     -1.643105    3.155262    0.987887
O     -2.744410    2.810233    1.465280
O      4.258274   -1.389504   -1.430174
O      2.269483   -3.010891   -0.507280
O     -1.272003    4.479682    0.715674
O     -4.855111   -2.462264    1.434527
O     -3.902621   -2.556441   -0.525940
H      4.989654    0.023950   -2.794054
H      5.705577    0.102264   -1.135275
H      6.155349   -1.211163   -2.253227
H      1.308181   -4.051282    1.046723
H      1.580176   -4.916724   -0.538962
H      0.338197   -3.658938   -0.443839
H     -1.827643    0.762805    2.890868
H     -3.749602   -0.631911    3.362075
H      1.084181    2.771632   -1.704006
H      2.526309    3.155154   -0.661527
H     -1.658438   -0.860248   -1.012172
H      3.753921    1.225457   -1.381076
H      0.138446   -1.670732    0.305479
H     -0.444400    4.367534   -1.232817
H      0.490218    5.269923    0.053136
H     -5.789556   -1.806309   -0.301353
H     -5.668850   -3.638533   -0.104425
H      1.145261    3.412081    1.239862
