39

C      3.408166   -1.362426   -0.731748
C      3.611928    0.610490    0.960523
C     -1.114120    2.816627   -1.872598
C     -1.510635   -2.507641    1.297675
C     -3.058256   -0.751842    0.484938
C     -2.851457    0.592484   -0.183432
C      0.236692    1.929313   -0.020355
C      0.486736   -0.961109   -0.671607
C      2.800805   -0.302312    0.108841
C     -0.761422    1.753702   -0.888992
C     -1.807877   -1.572539    0.152534
C     -1.539461    0.507182   -0.898714
C      1.490760   -0.149537    0.112762
C     -0.788644   -0.507722   -0.041245
C      0.655542    0.828619    0.862007
O      1.276767    1.269273    2.026119
O     -0.472229    0.045005    1.187948
H      4.490612   -1.141261   -0.816902
H      3.283427   -2.364048   -0.274065
H      2.927001   -1.328960   -1.737501
H      3.227394    1.642706    0.793448
H      4.689324    0.573299    0.678934
H      3.447838    0.356050    2.010909
H     -2.037837    3.312843   -1.547852
H     -1.301550    2.348068   -2.866434
H     -0.264385    3.530489   -1.946279
H     -1.398351   -3.534257    0.873596
H     -2.387823   -2.576876    1.996328
H     -0.613813   -2.251197    1.862310
H     -3.973625   -1.247073    0.109941
H     -3.140774   -0.643594    1.588036
H     -2.809286    1.407187    0.574962
H     -3.685433    0.837389   -0.874033
H      0.719712    2.895876    0.011276
H      0.682811   -2.036806   -0.598858
H      0.549570   -0.567217   -1.709678
H     -1.992545   -2.120171   -0.793078
H     -1.636462    0.107213   -1.929111
H      1.160902    0.562773    2.709394
