45

C     -5.694585   -0.202266   -0.051260
C     -1.682705    3.485690   -1.037625
C      2.776707   -0.145516   -1.173630
C      3.838691    0.720695   -1.336216
C     -1.388490   -2.742573    0.543163
C      1.880736    1.151083    0.574654
C     -3.023501   -0.989872    0.091184
C     -0.980549    0.877415   -0.410205
C      0.596618   -3.992055    1.512447
C      4.354726    3.828549    0.434472
C      1.793092    0.043298   -0.234319
C     -1.667700   -1.344117    0.152039
C     -0.025991   -3.236769    0.365658
C     -0.673618   -0.433235   -0.093637
C      3.902414    1.824423   -0.510642
C     -3.317320    0.315515   -0.224962
C     -2.309280    1.226817   -0.469477
C      2.927973    2.035234    0.437337
C      0.704968   -0.916768   -0.059378
C      1.029116   -2.176837    0.185192
C      2.274577   -2.909325    0.408500
O      3.435041   -2.527515    0.163433
O     -4.645564    0.685388   -0.290195
O     -2.666699    2.522991   -0.781166
O      1.928797   -4.159115    0.967762
O      4.842015    2.844825   -0.453124
O      3.284942    3.221697    1.093212
H     -6.672250    0.198847   -0.449632
H     -5.583967   -1.193061   -0.512817
H     -5.869299   -0.353901    1.042113
H     -1.126868    3.150112   -1.951338
H     -2.100531    4.473866   -1.254550
H     -0.950821    3.572700   -0.191722
H      2.769963   -0.996610   -1.879582
H      4.579945    0.524570   -2.085553
H     -2.089052   -3.362236   -0.101230
H     -1.755973   -2.914343    1.583357
H      1.156885    1.393589    1.350343
H     -3.794961   -1.735841    0.290497
H     -0.196739    1.589677   -0.606188
H      0.683915   -3.308175    2.378049
H      0.131120   -4.944794    1.735958
H      4.089441    4.745661   -0.120864
H      5.207235    4.058556    1.126268
H      0.027544   -3.906277   -0.543116
