51

C      0.909136   -1.996179   -0.546263
C     -0.101918   -1.516973    1.517753
C      6.826394    0.182610   -1.201273
C     -6.753417    1.131687    0.117183
C      2.755748    0.912428   -0.902101
C      4.100754    0.671419   -1.000785
C     -2.659787   -1.748557    0.277685
C     -1.368436   -2.131952   -0.333733
C      0.587249    0.989220    0.270165
C      2.713624    0.121678    1.317904
C     -4.139597    0.178407    0.042429
C     -2.066439    1.837547   -0.513889
C      2.023077    0.643645    0.261845
C     -2.832568   -0.296350    0.004721
C     -1.768062    0.503486   -0.269939
C     -0.372920    0.048827   -0.319353
C      4.056996   -0.119856    1.220807
C     -3.352611    2.340248   -0.484140
C      4.770932    0.146997    0.072066
C     -4.394821    1.505283   -0.204222
N     -0.228202   -1.314302    0.094953
O      4.795223   -0.653673    2.280885
O     -3.610101    3.691768   -0.735763
O      6.131574   -0.105305   -0.005025
O     -5.691315    2.040446   -0.179958
H      1.284356   -1.473080   -1.422764
H      0.595510   -3.011171   -0.951317
H      1.659887   -2.272187    0.220271
H     -0.865798   -2.237045    1.872949
H     -0.263099   -0.592093    2.100689
H      0.867375   -2.011162    1.782158
H      6.643134    1.214824   -1.567186
H      7.921232    0.025764   -0.980407
H      6.516645   -0.590016   -1.955756
H     -7.733382    1.638598    0.078905
H     -6.763758    0.295715   -0.628647
H     -6.523629    0.670457    1.090497
H      2.262379    1.330493   -1.780688
H      4.661708    0.890210   -1.928047
H     -2.746106   -1.870420    1.359848
H     -3.455292   -2.348215   -0.227934
H     -1.457325   -2.202844   -1.415329
H     -1.115920   -3.171842    0.027944
H      0.314624    1.205890    1.353206
H      0.572686    2.012814   -0.176821
H      2.231246   -0.098733    2.241332
H     -4.979540   -0.461913    0.261240
H     -1.272740    2.495259   -0.735097
H     -0.130006    0.020477   -1.442567
H      4.305866   -0.859428    3.131727
H     -2.860562    4.337098   -0.946317
