75

C      9.138093    2.070834   -0.020131
C     -7.622270   -0.708174    2.358272
C     -6.275683    1.068929    3.051430
C     -7.322354    1.243657    0.981526
C      9.332445    0.618086   -0.363280
C      8.002309   -0.140843   -0.052397
C      7.747305    0.047590    1.390819
C      6.615475   -0.597014    2.050200
C      5.220020   -0.365467    1.670809
C      4.769606   -0.785278    0.313852
C      3.254176   -0.443465    0.227494
C      2.740654   -0.843581   -1.120040
C      1.250522   -0.545916   -1.214626
C      1.006204    0.907796   -1.031476
C     -0.371218    1.410043   -1.075713
C     -1.166421    1.316556   -2.288357
C     -1.476166   -0.024873   -2.826419
C     -2.183862   -0.951280   -1.874822
C     -6.571055   -1.718287   -0.359121
C     -5.476903   -0.252848    1.338979
C     -5.554505   -0.657875   -0.136165
C     -6.633804   -2.103011   -1.781633
C     -3.498498   -0.457903   -1.458232
N     -6.688881    0.285277    1.863810
O     -7.480582   -3.014321   -2.117342
O     -5.874065   -1.585632   -2.802908
O     -3.998211    0.598982   -1.912139
O     -4.281511   -1.151795   -0.514329
Cl     0.683875    0.000000    0.000000
H      8.061235    2.321982   -0.103293
H      9.747388    2.731718   -0.686877
H      9.421344    2.222424    1.048371
H     -7.187066   -1.731483    2.248762
H     -8.634567   -0.610536    1.914176
H     -7.785861   -0.598075    3.456641
H     -6.078061    0.415632    3.902965
H     -7.097775    1.794516    3.281892
H     -5.363755    1.626757    2.737258
H     -6.512061    1.728418    0.401938
H     -7.767475    2.038050    1.614813
H     -8.131946    0.852168    0.369922
H     10.157518    0.166994    0.203051
H      9.523976    0.529644   -1.445404
H      8.079829   -1.178888   -0.409308
H      7.249006    0.466771   -0.641145
H      7.683650    1.177235    1.558245
H      8.696172   -0.219989    1.952378
H      6.772005   -1.742657    1.999737
H      6.736165   -0.424335    3.177806
H      4.913086    0.716954    1.779083
H      4.567389   -0.881732    2.459688
H      4.830151   -1.906530    0.230720
H      5.246133   -0.331356   -0.547886
H      3.218156    0.655286    0.410467
H      2.696782   -0.959215    1.033285
H      2.964308   -1.896452   -1.368427
H      3.220090   -0.157022   -1.864729
H      0.926541   -0.996167   -2.144729
H      0.782469   -1.073260   -0.321299
H      1.665606    1.527907   -1.711828
H      1.407112    1.221748    0.000293
H     -0.990103    0.891571   -0.248588
H     -0.417986    2.492329   -0.708067
H     -0.639358    1.884981   -3.151671
H     -2.145776    1.852690   -2.133008
H     -2.313403    0.137961   -3.647008
H     -0.717593   -0.532226   -3.421987
H     -1.561859   -1.036336   -0.956719
H     -2.218543   -1.983026   -2.293454
H     -6.351128   -2.659612    0.201175
H     -7.603740   -1.416188   -0.080236
H     -4.699339    0.556961    1.367890
H     -5.181140   -1.115869    1.947772
H     -5.768394    0.220071   -0.759736
H     -0.683875    0.000000    0.000000
