36

C     -2.158512   -2.884098   -0.247645
C     -1.662147    3.165133    0.405408
C      3.828669    0.207483    0.422293
C      0.162184   -2.320133    0.388966
C      1.320549   -1.518872   -0.046713
C     -3.123056    1.221107   -0.119863
C     -1.168169   -1.836203    0.101492
C     -1.938732    1.709023    0.216912
C      2.567834    0.540414   -0.330458
C      1.338710   -0.087739    0.297401
C     -3.051718   -0.234950   -0.222540
C     -1.694521   -0.624270    0.083467
C     -0.957434    0.618572    0.384903
C      0.275511    0.731733   -0.425035
C      2.218704    1.961929   -0.304785
O     -3.975889   -1.015003   -0.517393
O      3.044983    2.905804   -0.265956
O      0.827837    2.039564   -0.331626
H     -1.671363   -3.873936   -0.170328
H     -2.475441   -2.684000   -1.291550
H     -3.013221   -2.907444    0.457347
H     -1.678500    3.657464   -0.587340
H     -0.690044    3.337747    0.884082
H     -2.428913    3.644141    1.047589
H      3.669483    0.255390    1.508001
H      4.135204   -0.820767    0.076874
H      4.616044    0.890229    0.051333
H      0.266568   -3.357327    0.004346
H      0.241434   -2.440335    1.513494
H      1.403550   -1.598867   -1.167137
H      2.260412   -1.973489    0.334877
H     -4.011322    1.850773   -0.290024
H      2.677756    0.213231   -1.379319
H      1.302712    0.146075    1.367332
H     -0.650776    0.649751    1.465740
H      0.191614    0.431868   -1.474098
