62

C      3.400261   -0.768039    3.336164
C      6.193094    0.368048   -3.202434
C     -3.870420   -2.089309    3.134293
C     -5.769687    2.375756   -2.232466
C      6.930019    1.528032    1.235497
C     -7.540482   -1.226436    0.379116
C      3.092435   -0.626015    0.616233
C      4.041801   -0.246433   -1.522143
C     -3.115679   -0.344907    0.953561
C     -3.778674    1.090961   -0.769234
C      0.690313    1.254391   -0.190833
C     -0.265397   -1.514048   -0.349711
C      2.953161   -0.551627   -0.746018
C     -2.737841    0.472100   -0.069256
C      0.699486    0.350538   -1.356086
C     -0.669610   -0.343456   -1.211022
C      4.332033   -0.389281    1.159592
C      5.297098   -0.003104   -1.018069
C     -4.441998   -0.563520    1.296257
C     -5.107252    0.896068   -0.455500
C      1.614752   -0.806478   -1.338236
C     -1.380293    0.738880   -0.473870
C      5.405867   -0.085152    0.354351
C     -5.447155    0.060220    0.588281
O      4.527238   -0.453119    2.547530
O      6.403633    0.306493   -1.798862
O     -4.805831   -1.397119    2.338553
O     -6.133114    1.521506   -1.164459
O      6.676995    0.158152    0.904114
O     -6.779721   -0.170635    0.946341
O      1.004337   -1.901410   -0.779795
O     -0.482017    0.991686    0.558430
H      2.574840   -0.069854    3.110132
H      3.094827   -1.842203    3.204558
H      3.734161   -0.701658    4.404141
H      5.376002    1.060731   -3.466383
H      5.903973   -0.627836   -3.619105
H      7.094875    0.680921   -3.757110
H     -4.429348   -2.866155    3.728354
H     -3.153949   -2.678059    2.511795
H     -3.361741   -1.445733    3.874870
H     -5.066323    1.863647   -2.934051
H     -6.627290    2.768891   -2.779582
H     -5.219178    3.234396   -1.808134
H      6.235009    1.868502    2.046281
H      7.973524    1.653045    1.590350
H      6.715438    2.187003    0.369191
H     -8.561765   -0.878404    0.105705
H     -7.051690   -1.491428   -0.593475
H     -7.596168   -2.107540    1.024862
H      2.229825   -0.870396    1.264577
H      3.958056   -0.180108   -2.618649
H     -2.351784   -0.846331    1.525540
H     -3.525573    1.758936   -1.602214
H      0.525132    2.304630   -0.577494
H      1.578236    1.300883    0.424656
H     -0.921914   -2.385275   -0.438788
H     -0.123555   -1.160849    0.701709
H      0.666433    0.889689   -2.326584
H     -1.089464   -0.623815   -2.169872
H      1.810349   -1.087004   -2.419152
H     -1.328289    1.658630   -1.130473
