53

C      7.355492   -0.433973    2.042330
C     -4.954845    2.139787    1.378094
C     -2.571100   -1.665766   -3.184579
C     -1.796944    0.676939   -2.980435
C      5.876832   -0.085398    1.963739
C      5.157656   -1.276275    1.406782
C      3.668148   -1.068592    1.276459
C      3.414224    0.082713    0.354188
C     -5.172331    0.416414   -0.399896
C     -4.285014   -0.108183   -1.468368
C     -3.160647    0.458659    1.138338
C      1.228439    1.029409    1.110614
C      1.237244   -0.475631   -0.701876
C     -4.491518    1.070251    0.737460
C      1.920954    0.229521    0.265101
C     -2.318726    0.579369   -0.090930
C     -2.889099   -0.462392   -1.055241
C     -0.165677    1.142769    1.009077
C     -0.132663   -0.356205   -0.792835
C     -0.885117    0.454302    0.054992
C     -2.035189   -0.624422   -2.265500
O     -0.765579    1.968890    1.910133
O     -0.763412   -1.093382   -1.790178
H      7.646407   -0.550996    3.108767
H      7.584526   -1.332432    1.463412
H      7.942576    0.414767    1.642325
H     -4.446921    2.594441    2.199863
H     -5.887510    2.578722    1.061536
H     -1.789367   -2.114982   -3.835912
H     -3.300356   -1.191505   -3.906671
H     -3.044932   -2.512303   -2.645259
H     -0.767167    1.069130   -2.784924
H     -1.931873    0.560092   -4.068151
H     -2.500020    1.480003   -2.653123
H      5.739593    0.806760    1.353474
H      5.471718    0.071126    3.003405
H      5.605433   -1.541245    0.424921
H      5.350307   -2.135143    2.082870
H      3.285057   -0.847700    2.300224
H      3.189427   -1.981050    0.868660
H      3.798003   -0.157605   -0.657815
H      3.850631    1.032361    0.671521
H     -5.899461    1.142660   -0.833480
H     -5.821521   -0.386798    0.054199
H     -4.755498   -1.061139   -1.851212
H     -4.316110    0.584439   -2.337077
H     -3.380969   -0.633907    1.306536
H     -2.837227    0.970460    2.026463
H      1.771250    1.583819    1.871016
H      1.820476   -1.106298   -1.360271
H     -2.551330    1.603965   -0.524657
H     -2.923889   -1.409195   -0.495297
H     -0.372380    2.561905    2.597190
