37

C     -1.626892    1.814897   -1.045735
C     -1.374441   -3.021652   -0.781144
C      3.923506    0.300964   -0.157140
C      0.018543    2.306462    0.576369
C     -3.035499   -1.204850   -0.488424
C     -3.062934   -0.027890    0.439318
C      1.369892    1.706222    0.344574
C     -1.093405    1.481576    0.100778
C     -1.669045   -1.819586   -0.315779
C      2.605321   -0.083598   -0.704776
C     -1.661464    0.310593    0.787718
C      1.446177    0.242380    0.252795
C     -0.795881   -0.873815    0.430484
C      0.354733   -0.491106   -0.433130
C      2.388744   -1.520670   -0.881812
O      3.253134   -2.437105   -1.050933
O      1.014558   -1.700506   -0.828427
H     -2.460848    1.293522   -1.526077
H     -1.190071    2.698723   -1.562777
H     -2.121131   -3.600956   -1.306006
H     -0.408389   -3.506110   -0.677867
H      3.830753    1.347740    0.256661
H      4.328860   -0.406814    0.573869
H      4.636347    0.416222   -1.018963
H     -0.140293    2.470470    1.682882
H      0.016837    3.327511    0.140963
H     -3.805984   -1.977217   -0.209195
H     -3.252088   -0.937812   -1.532350
H     -3.664794   -0.343089    1.337277
H     -3.626802    0.802802   -0.006794
H      2.018532    2.039521    1.203013
H      1.842468    2.206027   -0.551499
H      2.367492    0.428157   -1.642150
H     -1.617832    0.435296    1.905013
H      1.672416   -0.274404    1.206715
H     -0.471666   -1.397669    1.353718
H     -0.008854   -0.004235   -1.354607
