36

C     -1.732941    3.099427   -0.474640
C     -2.055016   -2.845945    0.799903
C      3.785190   -0.782990   -0.357748
C      0.602103    2.157187   -0.230414
C      1.480806    1.214915    0.476759
C     -3.290845   -0.677070    0.476708
C     -0.845258    1.934143   -0.113015
C     -2.154340   -1.343546    0.580333
C      2.345909   -0.822486   -0.786452
C      1.415586   -0.212929    0.229548
C     -3.002323    0.729859    0.256139
C     -1.569720    0.880497    0.214216
C     -1.013368   -0.452612    0.595599
C      0.097901   -0.757728   -0.332496
C      1.801990   -2.204792   -0.846078
O     -3.828630    1.687710    0.119318
O      2.448409   -3.225022   -1.145575
O      0.438070   -2.105168   -0.499685
H     -1.063600    3.919304   -0.793549
H     -2.398086    2.834540   -1.329701
H     -2.310604    3.448150    0.406404
H     -1.365843   -2.994132    1.664740
H     -1.688076   -3.293987   -0.133317
H     -3.065804   -3.234625    1.065959
H      4.252417   -1.802033   -0.398167
H      4.342496   -0.192711   -1.134102
H      3.940936   -0.352997    0.643133
H      0.793433    3.183114    0.201408
H      0.934049    2.257148   -1.291992
H      2.550714    1.552962    0.292667
H      1.379559    1.377045    1.604882
H     -4.266198   -1.113478    0.545725
H      2.196253   -0.377302   -1.799964
H      1.579133   -0.837102    1.163345
H     -0.607236   -0.335183    1.658458
H     -0.127065   -0.312160   -1.328347
