62

C      5.192839    3.014047   -2.250130
C      4.761061   -3.351519    1.184115
C     -5.463614    1.562619   -3.152525
C     -4.736547   -1.562984    3.353294
C      8.000107   -0.068778   -0.004561
C     -7.504835    1.568424    1.087890
C      3.755324    1.047792   -0.820993
C      3.586826   -1.005245    0.294749
C     -3.889620    0.295940   -1.246288
C     -3.583548   -0.749528    0.892397
C      0.261063   -1.624919   -0.406878
C     -0.308335    0.321927    1.263973
C      2.962606    0.141091   -0.125563
C     -3.069707   -0.336562   -0.314190
C      0.578371   -0.198492   -0.792261
C     -0.692825    0.454315   -0.177141
C      5.083177    0.852397   -1.094106
C      4.921355   -1.242268    0.041407
C     -5.215700    0.518223   -0.981880
C     -4.924033   -0.515520    1.139357
C      1.569252    0.481060    0.092002
C     -1.681430   -0.535911   -0.684355
C      5.680138   -0.310574   -0.657517
C     -5.744316    0.108109    0.227302
O      5.829085    1.812323   -1.804097
O      5.533147   -2.409120    0.475877
O     -6.046221    1.156152   -1.920101
O     -5.476209   -0.913474    2.335232
O      7.027053   -0.517729   -0.929925
O     -7.091261    0.346846    0.467618
O      1.081506    0.230967    1.350295
O     -1.123696   -1.753724   -0.340682
H      4.250630    2.786786   -2.798033
H      4.907091    3.645646   -1.384840
H      5.863474    3.567284   -2.938409
H      3.849347   -3.624343    0.608243
H      5.306728   -4.288800    1.380573
H      4.499146   -2.894383    2.166392
H     -6.204610    1.969050   -3.847931
H     -4.681769    2.304207   -2.891613
H     -4.990531    0.646792   -3.610757
H     -4.080340   -0.846109    3.885275
H     -5.375090   -2.044645    4.098518
H     -4.071215   -2.367404    2.936412
H      8.314196   -0.918162    0.633611
H      8.907660    0.271289   -0.548993
H      7.593226    0.719681    0.657181
H     -8.060719    1.360158    2.042274
H     -6.619898    2.180744    1.374499
H     -8.197633    2.123362    0.423480
H      3.311006    1.979370   -1.179990
H      2.985729   -1.722290    0.838718
H     -3.481882    0.626513   -2.210520
H     -2.956581   -1.255094    1.642377
H      0.609684   -1.758996    0.649632
H      0.757868   -2.378216   -1.014248
H     -0.704892    1.151276    1.895394
H     -0.694226   -0.614266    1.717715
H      0.656432   -0.009728   -1.852191
H     -0.815762    1.475914   -0.523254
H      1.435516    1.592986   -0.063252
H     -1.583595   -0.494509   -1.821182
