25

C      1.868179   -0.771995    1.132049
C      1.668228    0.564827   -0.963503
C     -0.986206   -1.223119   -1.407621
C      1.130024    0.331664    0.421587
C     -1.052177   -0.919584    0.044682
C     -0.927888    1.511799   -0.004295
C     -0.341282    0.270772    0.542240
O     -2.426134   -0.705468    0.334498
O     -0.838770    1.717265   -1.235233
O     -1.572703    2.467591    0.756891
O     -0.616703    0.330075    1.942475
H      1.327553   -1.732102    1.132454
H      2.097012   -0.533929    2.191939
H      2.852074   -0.927944    0.627867
H      2.616319   -0.042290   -1.063940
H      2.040580    1.618919   -1.116152
H      0.977446    0.386625   -1.780710
H     -1.236317   -0.418226   -2.093056
H     -0.052666   -1.754736   -1.730698
H     -1.787183   -2.008783   -1.590503
H      1.427322    1.263435    1.006120
H     -0.800681   -1.848184    0.594892
H     -2.851885   -0.216684   -0.412522
H     -2.161505    3.191823    0.361582
H     -0.352636   -0.551752    2.308957
