26

C     -3.488229    0.300703   -0.020633
C      0.781374    0.484113    0.847823
C      2.143290    0.580155    1.147971
C      1.262658   -0.394040   -1.268706
C     -2.032478    0.372772    0.403234
C      0.322370    0.010023   -0.328878
C      3.040308    0.171893    0.196383
C      2.613908   -0.314487   -1.009814
C     -1.103680   -0.104629   -0.644702
N     -1.860350   -0.321396    1.647345
O      4.400369    0.254930    0.464740
O      3.541032   -0.723288   -1.961831
O     -1.297617    0.542097   -1.873339
H     -3.747744   -0.629333   -0.528610
H     -4.086988    0.419623    0.924625
H     -3.747709    1.195609   -0.642781
H      0.114991    0.826182    1.623193
H      2.447359    0.968198    2.108556
H      0.966913   -0.779152   -2.221733
H     -1.829810    1.455487    0.576166
H     -1.292352   -1.196298   -0.840112
H     -2.723080   -0.270669    2.260161
H     -1.510981   -1.287397    1.557453
H      4.777343    0.600122    1.324395
H      4.512828   -0.663587   -1.769564
H     -2.203724    0.910144   -1.971339
