27

C      3.600131    0.436269    0.162514
C     -2.081101   -1.087663    0.710736
C     -2.916944   -0.484062   -0.371671
C     -0.626565   -1.090574    0.213345
C     -2.415144    0.899135   -0.712098
C      1.213075    0.571762   -0.233694
C      2.218958    0.057097    0.720723
C     -0.214359    0.328530    0.090896
N     -1.009531    0.936115   -0.976586
O      2.213048   -1.355827    0.682379
H      3.502400    1.362747   -0.476032
H      3.997538   -0.348990   -0.499627
H      4.294701    0.691355    0.970245
H     -2.404151   -2.107452    0.957681
H     -2.117540   -0.416041    1.593670
H     -2.979334   -1.096343   -1.276082
H     -3.970699   -0.349477   -0.002106
H     -0.660826   -1.604175   -0.782239
H     -0.077355   -1.694949    0.936931
H     -2.711204    1.635400    0.066420
H     -2.935460    1.204206   -1.643482
H      1.466746    0.158681   -1.251593
H      1.366428    1.672775   -0.341347
H      2.174202    0.455368    1.726929
H     -0.504220    0.861159    1.018105
H     -0.722395    1.947626   -1.004442
H      2.299602   -1.582676   -0.279575
