26

C     -2.125427    1.057477   -1.202646
C      0.755954   -0.649398   -1.395998
C      2.080500   -0.290841   -1.532288
C      0.828279   -0.268302    0.912846
C     -2.273752    0.125947   -0.047896
C      0.087042   -0.652554   -0.187198
C      2.805522    0.090274   -0.422528
C      2.159155    0.095225    0.796784
C     -1.318049   -1.038703   -0.080019
N     -2.041202    0.836410    1.196333
O      4.140460    0.454800   -0.539629
O      2.916948    0.485220    1.903271
O     -1.527749   -1.896363    0.997861
H     -2.256130    0.545734   -2.178314
H     -2.934499    1.814472   -1.143781
H     -1.146542    1.566335   -1.247780
H      0.247992   -0.940740   -2.329204
H      2.591411   -0.295631   -2.501678
H      0.388281   -0.238489    1.912088
H     -3.329023   -0.214815   -0.020104
H     -1.593573   -1.638137   -0.995899
H     -2.781184    1.558168    1.349419
H     -1.989332    0.128283    1.960373
H      4.643297    0.729336    0.295665
H      2.497766    0.509594    2.829669
H     -0.826144   -1.873300    1.670653
