35

C     -4.342896    0.307296    0.697117
C     -4.550266    0.196225   -0.659952
C      4.240397    0.939717    1.274326
C      3.385120    2.010710    1.424295
C      3.808183   -0.238166    0.704819
C     -3.116741    0.227584    1.277461
C     -3.458131   -0.006584   -1.475062
C      2.084723    1.831376    0.973752
C      2.065699   -1.689972   -0.353449
C      0.853431   -1.562475   -1.197688
C     -0.646786   -0.074337    1.003281
C     -1.046466   -0.315005   -1.856322
C      2.513966   -0.409736    0.259021
C     -2.016507    0.022055    0.443772
C     -2.170804   -0.095369   -0.917035
C      1.660640    0.655426    0.407359
C      0.271417    0.488423   -0.065194
N      0.253305   -0.279774   -1.264542
H     -5.198808    0.467002    1.343831
H     -5.567444    0.269433   -1.070032
H      5.255462    1.071483    1.622923
H      3.712294    2.946945    1.872150
H      4.490068   -1.077495    0.590717
H     -2.902998    0.307149    2.323271
H     -3.622510   -0.093255   -2.536955
H      1.418359    2.693342    1.100935
H      2.932058   -2.080901   -0.958952
H      1.909694   -2.473984    0.435605
H      0.073727   -2.306384   -0.862467
H      1.093883   -1.886592   -2.250579
H     -0.500608    0.527232    1.910541
H     -0.442344   -1.139422    1.223489
H     -1.063961    0.510669   -2.628665
H     -1.212099   -1.241992   -2.468958
H     -0.163056    1.499376   -0.322814
