50

C     -0.551825   -2.222381    1.693880
C     -5.802799    1.215516   -1.272860
C     -3.389729    0.868708    2.850577
C     -2.108127   -0.649093   -1.818829
C     -3.329014   -0.015002   -1.602625
C      2.343850   -1.002949   -2.324751
C      4.117069    0.299829   -1.088823
C      2.802852   -0.163049    1.252983
C     -0.295582    0.141731    1.315745
C      5.558421    2.205639    1.637140
C      2.964830   -0.422858   -1.087770
C     -1.104907   -0.602544   -0.864358
C      2.275197   -0.674018    0.087677
C     -1.386853    0.096145    0.287118
C      0.873197   -0.585281   -2.264013
C     -3.561659    0.673226   -0.429666
C      4.660638    0.821082    0.078544
C      3.973481    0.573030    1.263850
C      0.184900   -1.288124   -1.124395
C      1.018321   -1.462079    0.093354
C     -2.586143    0.732915    0.527226
N      0.325868   -1.148265    1.324022
O      0.831432    0.791220   -2.170460
O     -4.803208    1.282264   -0.281191
O     -2.833077    1.422198    1.689965
O      5.794177    1.577225    0.370107
O      4.734315    1.202767    2.250895
H     -1.557044   -2.151082    1.221635
H     -0.694888   -2.293977    2.800390
H     -0.081674   -3.189496    1.367200
H     -5.991477    0.185245   -1.635070
H     -5.542138    1.837838   -2.153646
H     -6.748588    1.563473   -0.793259
H     -2.979176    1.398202    3.742923
H     -4.486439    0.967727    2.899486
H     -3.137742   -0.199295    2.989987
H     -1.943925   -1.182217   -2.741134
H     -4.083796   -0.074772   -2.370021
H      2.405723   -2.090354   -2.243683
H      2.823734   -0.665056   -3.239972
H      4.627566    0.474770   -2.029413
H      2.321209   -0.315500    2.222512
H     -0.699168    0.348403    2.305924
H      0.434826    0.878588    0.955490
H      6.475444    2.392585    2.193039
H      4.935350    3.082540    1.446441
H      0.432663   -0.935428   -3.228672
H     -0.095629   -2.309089   -1.519538
H      1.343052   -2.539388    0.198908
H      1.536494    1.148432   -2.782863
