68

C     -2.439369    1.373259    3.209543
C     -2.594299    0.458323    4.237488
C      4.792968    0.894537   -0.687190
C     -2.365299    0.920442    1.919363
C      5.323716   -0.326508   -0.008696
C     -3.748051   -0.235012   -1.729639
C     -4.763765   -0.244048    0.381900
C     -4.957194    0.155262   -2.275642
C     -5.962292    0.143434   -0.157381
C      0.261063   -0.500125   -2.039338
C      1.025505   -0.715637    0.229173
C     -2.672404   -0.886527    3.960553
C      3.331313    1.055721   -0.814541
C      1.300845    0.582662   -1.927101
C      2.222037   -1.067988   -0.629258
C     -3.615748   -0.445567   -0.392285
C     -6.084509    0.355357   -1.525507
C     -0.220285   -0.917174   -0.654900
C     -2.446971   -0.440295    1.692418
C      6.824248   -0.169167    0.049744
C     -2.339870   -0.869721    0.249007
Cl    -7.606844    0.858917   -2.243299
N     -2.597554   -1.332893    2.682958
N      2.629071    0.024588   -1.516569
O      7.305984    0.933670    0.498062
O      7.667309   -1.174024   -0.366990
O     -1.250046   -0.124113   -0.226716
C      2.388194    0.121836    0.217878
C      1.690294   -0.770978    1.019641
C      1.742711    0.891978   -0.736163
C      0.327848   -0.850830    0.817849
C      0.378994    0.776124   -0.899971
C     -0.346837   -0.100958   -0.120804
O     -2.882829    0.857253    0.669349
O     -2.531415   -1.612130    0.078940
O     -2.474436   -0.038261   -1.776320
S     -2.087521   -0.241617   -0.337523
H     -2.379372    2.433893    3.396549
H     -2.657436    0.830763    5.250036
H      5.267100    1.804699   -0.196105
H      5.282415    0.904398   -1.708941
H     -2.245402    1.613681    1.071298
H      4.957685   -0.474404    1.015699
H      5.166155   -1.228228   -0.654155
H     -2.893899   -0.379795   -2.378496
H     -4.742167   -0.391878    1.466544
H     -5.050546    0.320177   -3.350366
H     -6.851594    0.299710    0.428240
H      0.688900   -1.358649   -2.560527
H     -0.569778   -0.082656   -2.641169
H      1.036184   -1.434635    1.064488
H      1.142512    0.323648    0.549135
H     -2.794959   -1.588040    4.751806
H      3.116052    2.068126   -1.265991
H      2.921719    1.173268    0.236801
H      1.481024    0.984474   -2.946563
H      1.033555    1.375738   -1.194874
H      3.035092   -1.311413    0.059365
H      2.025445   -2.012898   -1.215706
H     -0.424001   -1.993620   -0.596644
H     -2.184874   -1.956047    0.183868
H      8.620629   -0.982492   -0.679447
H      3.459133    0.212206    0.347169
H      2.228342   -1.355332    1.753683
H      2.302501    1.582630   -1.352201
H     -0.213856   -1.541637    1.437844
H     -0.122220    1.383803   -1.651091
H     -3.858903    0.685914    0.531720
