24

C      2.295483   -0.647832   -0.050015
C      0.952520    0.004861    0.216358
C     -0.118084   -1.073540    0.391093
C     -1.379789   -0.376238    0.791271
C     -1.499612    0.996805    0.240013
C      0.620540    0.890797   -0.951333
C     -0.772121    1.251357   -1.025794
O      3.250637    0.331279   -0.205534
O      0.274641   -2.083683    1.215843
O     -2.487005   -1.149528    0.427821
O     -1.011839    1.900813    1.206940
O     -0.363849    0.254775   -1.872188
H      2.566626   -1.235289    0.866483
H      2.203014   -1.316468   -0.912098
H      0.974528    0.572735    1.179461
H     -0.287991   -1.472384   -0.652083
H     -1.401796   -0.331227    1.919739
H     -2.565658    1.237775    0.100284
H      1.426121    1.353696   -1.544141
H     -1.103074    2.179651   -1.565056
H      3.024184    1.096068    0.360139
H     -0.036083   -2.954382    0.812707
H     -2.837305   -1.672842    1.178019
H     -1.724087    2.242802    1.778170
