31

C      4.198245   -0.732606   -0.047033
C     -4.107561   -0.541473   -0.107563
C      3.202175   -0.241039   -0.861977
C     -2.790723   -0.992883   -0.076227
C     -3.294017    1.683105   -0.332051
C      2.669833   -1.146587    1.686079
C      0.439564    1.684729   -0.591832
C     -4.352347    0.806010   -0.236466
C      3.966642   -1.193450    1.232333
C      1.909226   -0.211588   -0.365445
C     -1.722949   -0.132397   -0.170289
C      0.607976    0.237698   -0.936245
C     -1.975267    1.212462   -0.298857
C      1.621248   -0.659856    0.906682
C     -0.352489   -0.620341   -0.136128
O     -5.641412    1.318862   -0.274059
O      5.012710   -1.686042    2.027809
O     -0.899357    2.076290   -0.393291
O      0.242954   -0.520273    1.159515
H      5.222253   -0.758503   -0.433709
H     -4.948901   -1.226028   -0.032803
H      3.352737    0.122902   -1.858001
H     -2.661295   -2.058904    0.026366
H     -3.411882    2.748510   -0.434705
H      2.486466   -1.508686    2.691937
H      1.020722    1.968613    0.324761
H      0.879337    2.272205   -1.443707
H      0.541684    0.033113   -2.021052
H     -0.234874   -1.677201   -0.447267
H     -6.464451    0.736308   -0.209426
H      5.483755   -0.992950    2.605880
