65

C      1.827904   -4.886541    0.934726
C      6.073484    3.708928   -0.717702
C      3.688933    3.472095   -0.304776
C     -7.380337    3.589808    0.247749
C      2.137826   -3.971306   -0.210691
C      3.961344   -0.398197    0.555369
C      4.429119    0.788591    1.224971
C      3.107171   -0.413311   -0.642821
C     -0.296153   -2.718470    0.824188
C     -1.671828   -2.198427    0.438247
C     -4.094878   -1.159062   -0.363890
C     -3.562911    1.037986    0.258373
C     -5.365747   -0.749421   -0.712443
C     -4.842229    1.457285   -0.091745
C      5.293099    1.826384    0.696135
C      2.799741   -1.876237   -0.985144
C      0.702651   -2.130193   -0.090291
C     -3.156656   -0.276901    0.131734
C     -5.751401    0.582541   -0.575507
C     -1.786999   -0.720710    0.501741
C      4.931088    2.666935   -0.457397
F      4.881040    2.019188   -1.687822
N     -7.068715    0.942842   -0.943950
N      2.102376   -2.544162    0.155027
O     -1.440014   -0.266587    1.766285
O     -9.420944    2.013218   -0.565121
O     -8.112873    1.338037    1.407345
S     -8.025371    1.962161    0.026330
H      1.093893   -5.638335    0.654779
H      1.565695   -4.343794    1.869176
H      2.766219   -5.496324    1.199687
H      6.075867    4.477310    0.055672
H      5.975657    4.105192   -1.745979
H      6.989126    3.088400   -0.669552
H      3.772948    4.304496    0.431275
H      3.529922    4.004210   -1.290911
H      2.772364    2.865876   -0.156630
H     -8.274764    4.280725    0.374341
H     -6.843083    3.993145   -0.621660
H     -6.789646    3.716159    1.174766
H      1.392075   -4.171758   -1.021255
H      3.121290   -4.239669   -0.625722
H      4.858741   -1.119722    0.408918
H      3.380246   -1.014917    1.336212
H      3.496152    1.302394    1.714983
H      4.896182    0.399408    2.224340
H      3.522896   -0.024232   -1.583275
H      2.158702    0.106249   -0.463940
H     -0.369294   -3.832248    0.735170
H     -0.077844   -2.453862    1.861633
H     -2.399776   -2.654618    1.139090
H     -1.936843   -2.596361   -0.589395
H     -3.884126   -2.203183   -0.496287
H     -2.881522    1.777212    0.643470
H     -6.108045   -1.429950   -1.107045
H     -5.137625    2.496089    0.009751
H      5.464703    2.575621    1.556319
H      6.385901    1.466643    0.577168
H      2.176516   -1.928817   -1.892938
H      3.732129   -2.434164   -1.180748
H      0.516410   -2.370233   -1.156409
H      0.702807   -1.025275    0.089627
H     -1.126275   -0.265629   -0.284774
H     -7.451946    0.564446   -1.836195
H     -1.024375    0.623045    1.642824
