46

C     -4.286488   -2.320847    1.465341
C      1.943676    0.385514    1.766744
C      3.248133   -1.113282    0.484941
C      2.385664   -0.210880    2.934206
C      3.707597   -1.730398    1.646832
C     -2.566264    2.178594    0.169756
C     -3.790391    2.421538    0.802336
C      3.016102    1.105689   -1.562014
C      3.237990    0.468713   -2.885565
C     -2.847949   -0.134808    0.514333
C      0.838443    0.247091   -2.880401
C     -0.287409   -0.555313   -0.816212
C      2.366454   -0.054817    0.529542
C      1.028293   -0.416061   -1.529759
C      3.266782   -1.267779    2.873467
C     -2.082641    0.897461    0.019388
C      1.900163    0.577083   -0.751028
C     -4.519035    1.354343    1.280658
C     -4.061063    0.049439    1.145969
F      3.721966   -1.878667    4.015919
N      2.071254    0.064794   -3.598167
O     -5.738055    1.556394    1.913948
O     -4.816807   -1.017805    1.638751
O     -0.862583    0.716574   -0.616237
H     -3.328401   -2.452790    1.991235
H     -4.179045   -2.458497    0.353585
H     -5.000312   -3.101804    1.785723
H      1.255380    1.209692    1.840135
H      3.579345   -1.457970   -0.489314
H      2.050330    0.138977    3.904457
H      4.400913   -2.559735    1.557461
H     -1.981332    3.011140   -0.212188
H     -4.169131    3.431895    0.919505
H      2.893640    2.202097   -1.684226
H      3.962367    0.994507   -0.953017
H      3.892311   -0.423633   -2.779253
H      3.801354    1.182748   -3.528061
H     -2.476562   -1.154443    0.401880
H      0.026345   -0.200262   -3.465565
H      0.690361    1.351343   -2.750761
H     -0.112279   -1.104012    0.130742
H     -0.936871   -1.209134   -1.450282
H      1.532736   -1.369081   -1.690300
H      1.209290    1.393078   -0.455461
H      2.150546   -0.877475   -4.038115
H     -6.134815    2.467432    2.049071
