46

C     -4.598169    3.102266    1.244549
C      2.445616    2.095952    0.329318
C      3.923671    0.500557   -0.704103
C      3.377041    3.093062    0.123897
C      4.827427    1.533233   -0.888910
C     -3.014609   -1.363357   -0.274153
C     -4.345421   -1.547984   -0.018935
C      2.201157   -1.224900    1.145908
C      2.694327   -2.522530    0.601816
C     -3.101499    0.922901    0.338501
C      1.775130   -2.106598   -1.557842
C     -0.327078   -1.171948   -0.836627
C      2.728668    0.797916   -0.089545
C      1.153540   -0.840107   -1.087792
C      4.584905    2.830857   -0.488735
C     -2.374126   -0.156987   -0.107192
C      1.697841   -0.236854    0.152852
C     -5.069049   -0.465806    0.426499
C     -4.465464    0.771927    0.609996
F      5.505950    3.819977   -0.691183
N      1.946430   -3.045049   -0.496116
O     -6.438526   -0.563105    0.713172
O     -5.235112    1.835760    1.061152
O     -1.032214   -0.060187   -0.387717
H     -5.337180    3.899210    1.430127
H     -4.043055    3.390289    0.313184
H     -3.843432    3.067993    2.053430
H      1.519453    2.367760    0.814820
H      4.102545   -0.505069   -1.010177
H      3.198548    4.130970    0.436875
H      5.755662    1.272588   -1.372868
H     -2.434535   -2.198160   -0.622734
H     -4.855581   -2.484860   -0.145685
H      1.441518   -1.399151    1.944348
H      3.083509   -0.761725    1.681623
H      2.579751   -3.274461    1.441502
H      3.778145   -2.435937    0.334054
H     -2.649668    1.902400    0.489598
H      1.020550   -2.579613   -2.261793
H      2.681697   -2.004605   -2.179308
H     -0.353730   -1.960716   -0.050492
H     -0.717490   -1.614013   -1.761467
H      1.170461   -0.072454   -1.889720
H      0.825294    0.287926    0.662478
H      1.101005   -3.579004   -0.236449
H     -6.883901   -1.448364    0.585051
