51

C      5.353140    0.744112   -0.361801
C      4.876967   -1.590382   -0.606283
C     -3.914214    0.420255   -1.218202
C     -3.414522   -1.917129   -0.886176
C     -3.147382    0.486715    1.934040
C      0.272862    0.364356   -1.844887
C     -1.098675   -0.276935   -1.708474
C     -3.764718   -0.521426    1.044677
C     -1.636478    0.375385    1.991452
C      2.415725    0.118718   -0.727988
C      1.146959    0.130537    1.766266
C      4.612517   -0.417944    0.392403
C      1.042586    0.313757   -0.606298
C      3.182998   -0.075319    0.418251
C      0.432751    0.321004    0.644528
C      2.530122   -0.073809    1.658127
C     -1.646512   -0.382657   -0.341883
C     -1.200437    2.025401    0.207110
C     -3.137969   -0.476425   -0.335951
C     -1.045380    0.640706    0.611985
O      3.217522   -0.263867    2.813455
O     -0.184431    2.806223   -0.003283
O     -2.406844    2.659928    0.009633
H      6.449002    0.638890   -0.269274
H      4.957618    0.838549   -1.353788
H      4.999260    1.639987    0.274389
H      4.397428   -2.512928   -0.350127
H      4.659581   -1.237447   -1.641768
H      6.013553   -1.726705   -0.625568
H     -4.702275   -0.133860   -1.834365
H     -4.577782    1.072168   -0.559628
H     -3.401883    1.050470   -1.931372
H     -2.887364   -2.585864   -0.156736
H     -4.483298   -2.112927   -0.872672
H     -3.011277   -2.052259   -1.882269
H     -3.494217    0.318010    3.003056
H     -3.511612    1.482306    1.646538
H      0.843976   -0.207482   -2.641355
H      0.234475    1.391044   -2.248446
H     -1.739720    0.234452   -2.447561
H     -1.015747   -1.315238   -2.115729
H     -3.771736   -1.549182    1.456177
H     -4.835222   -0.190004    0.873856
H     -1.270444    1.191254    2.634940
H     -1.403208   -0.643290    2.304767
H      2.882857    0.111869   -1.676396
H      0.691349    0.152317    2.714524
H      5.117899   -0.682324    1.288014
H     -1.284895   -1.392416    0.080236
H      4.188371   -0.424718    2.897750
H     -2.531278    3.234124   -0.833914
