48

C      5.846741   -2.012366    0.790160
C      4.265267    2.526513   -1.923115
C     -4.927114   -1.110173    1.592682
C     -2.724355    1.631845   -2.061248
C     -4.120660    1.515776   -2.016492
C      0.770389   -2.162635    1.086905
C     -0.518594   -1.497917    1.405581
C     -0.504280    1.372987   -0.908498
C      3.142307   -1.501800    0.587316
C      2.300477    0.744903   -0.753313
C     -1.827633    0.489264    1.355048
C     -1.982871    1.293380   -0.960759
C      1.795211   -1.237211    0.479996
C      1.383036   -0.109877   -0.193083
C     -2.633118    0.846892    0.163562
C     -0.078605    0.086363   -0.252953
C     -4.751702    1.064556   -0.875763
C      4.046822   -0.632787    0.018916
C      3.659346    0.515068   -0.667756
C     -4.010168    0.725163    0.227732
N     -0.590501   -0.119189    1.057351
O     -6.149072    0.942083   -0.813601
O      5.423603   -0.858906    0.101495
O      4.613580    1.350550   -1.217670
O     -4.654799    0.272568    1.369590
H      5.478842   -2.019821    1.835093
H      5.478875   -2.948382    0.316497
H      6.945993   -2.089238    0.841443
H      3.889520    2.319512   -2.946040
H      3.425417    3.062503   -1.401115
H      5.110085    3.247547   -1.945193
H     -4.448813   -1.714100    0.780196
H     -6.029388   -1.293933    1.625816
H     -4.440314   -1.390606    2.551834
H     -2.237639    1.986294   -2.959130
H     -4.736347    1.768709   -2.851285
H      1.204669   -2.548783    2.055351
H      0.654271   -3.083098    0.447581
H     -0.802327   -1.595318    2.492467
H     -1.330620   -2.045545    0.843880
H     -0.218163    2.237629   -0.280602
H     -0.039623    1.407873   -1.909267
H      3.476999   -2.391926    1.118432
H      1.956933    1.643558   -1.289278
H     -1.608842    1.480974    1.857329
H     -2.433994   -0.048356    2.119080
H     -0.471712   -0.737660   -0.904408
H     -6.597128    0.617119    0.009237
