35

C      2.722038   -0.165328    1.217848
C      1.792810    0.547141   -0.798574
C     -4.650222    0.249890   -0.168734
C     -2.829810    1.622813    0.620522
C      1.593099    0.011250    0.453567
C     -4.189547    1.436470    0.335997
C     -3.778070   -0.818735   -0.418140
C      3.996556    0.170947    0.770409
C      3.032841    0.891931   -1.276997
C     -1.952617    0.591257    0.385136
C     -2.449402   -0.609162   -0.130801
C      4.169582    0.705027   -0.485154
C     -1.438958   -1.625419   -0.353512
C     -0.204330   -1.705361    0.475630
C      0.248313   -0.356056    0.956189
O     -5.044137    2.516406    0.592266
O     -4.271878   -1.995989   -0.922234
O      5.106057   -0.032184    1.593925
O      3.175585    1.427946   -2.546213
O      5.405206    1.062681   -0.996336
O     -1.611834   -2.460854   -1.273177
O     -0.498610   -2.555195    1.542498
O     -0.622756    0.701074    0.637556
H      2.615302   -0.581083    2.203463
H      0.886178    0.685148   -1.403048
H     -5.684167    0.102226   -0.387216
H     -2.491224    2.570518    1.019211
H      0.582811   -2.209192   -0.133597
H      0.306766   -0.395543    2.070413
H     -5.231156    3.218074   -0.135935
H     -3.733268   -2.791418   -1.105486
H      6.023575    0.211629    1.267591
H      4.042559    1.695411   -2.945292
H      6.285596    0.987982   -0.554374
H     -1.302887   -3.104302    1.361831
