59

C      0.485820   -1.814424   -2.236203
C     -1.773726    0.828270   -3.218302
C     -3.925105    2.102649    0.626799
C      5.875836    1.776560    2.148335
C      5.303916   -0.446321   -2.029533
C     -5.170062   -2.534627    1.635252
C      1.715649    1.117426    3.022591
C      0.950197    0.468062    2.118929
C      3.053993    1.337384    2.757337
C      2.635211   -0.858935   -1.448240
C     -1.177367    1.347606   -0.847777
C     -2.366100   -2.190500    1.140294
C      1.295304   -1.097283   -1.219245
C     -2.173151    1.610162   -1.964649
C     -3.846469    0.944308   -0.338454
C      1.541396    0.028462    0.919771
C     -1.527136    0.073031   -0.141003
C     -1.026588   -2.004304    0.892381
C      3.646991    0.911932    1.585749
C      3.437950   -0.200490   -0.545973
C     -3.286870   -1.228322    0.738919
C      0.787424   -0.639403   -0.027307
C     -2.876754   -0.083540    0.092491
C     -0.610276   -0.868710    0.250078
C      2.879369    0.240202    0.638154
N     -3.521263    1.333928   -1.667876
O     -0.090801   -2.996643    1.307922
O      4.977892    1.110748    1.281812
O      4.771535    0.020664   -0.806256
O     -4.630676   -1.422591    0.991552
H      0.716626   -2.884140   -2.318967
H      0.773033   -1.385165   -3.224365
H     -0.599753   -1.599038   -2.151470
H     -2.316474   -0.148742   -3.251037
H     -0.682391    0.680990   -3.278594
H     -2.081095    1.371156   -4.135843
H     -4.935488    2.239373    1.064817
H     -3.704676    3.031238    0.053498
H     -3.232077    1.976684    1.484047
H      6.166966    1.161737    3.017857
H      6.797229    2.024450    1.573039
H      5.353899    2.680772    2.529042
H      6.405239   -0.327266   -2.074132
H      5.063681   -1.527246   -2.117923
H      4.796044    0.047675   -2.908080
H     -5.163644   -2.329175    2.738067
H     -6.237106   -2.689070    1.364924
H     -4.647236   -3.481951    1.391137
H      1.278465    1.460212    3.945151
H     -0.112904    0.251524    2.245293
H      3.683266    1.860101    3.477736
H      3.040707   -1.223464   -2.397889
H     -1.291627    2.225159   -0.166044
H     -0.209017    1.304074   -1.347335
H     -2.660941   -3.095523    1.648037
H     -2.103338    2.693105   -2.277312
H     -4.888747    0.507276   -0.373992
H     -4.174451    2.129264   -1.940207
H     -0.390328   -3.819314    1.772996
