48

C      5.605853   -2.447036    0.063248
C      4.446382    2.718911   -1.630200
C     -4.722635   -1.051627    2.130850
C     -2.838792    0.914313   -2.008822
C     -4.202363    0.723472   -1.922996
C      0.707312   -1.808155    1.231726
C     -0.636262   -1.224594    0.858620
C     -0.566351    1.112751   -0.999377
C      3.035552   -1.416926    0.402710
C      2.484045    1.122475   -0.435079
C     -1.893754    0.666728    1.590939
C     -2.034241    0.903232   -0.867493
C      1.744485   -0.927297    0.584148
C      1.487072    0.350408    0.156768
C     -2.680520    0.693571    0.322007
C      0.117969    0.949392    0.316426
C     -4.821391    0.512933   -0.689969
C      3.996724   -0.638959   -0.181112
C      3.764279    0.648387   -0.619467
C     -4.038286    0.499656    0.444912
N     -0.590680    0.170096    1.276876
O     -6.188034    0.320192   -0.589751
O      5.283662   -1.145807   -0.354583
O      4.781376    1.389177   -1.204859
O     -4.624054    0.291831    1.694531
H      4.884078   -3.167130   -0.347469
H      6.655695   -2.637234   -0.243452
H      5.534447   -2.509861    1.171713
H      3.550157    2.625525   -2.279566
H      4.172367    3.347067   -0.752597
H      5.261273    3.180617   -2.201145
H     -5.813964   -1.341888    2.141923
H     -4.227973   -1.764535    1.450527
H     -4.279902   -1.193252    3.138049
H     -2.379937    1.075891   -2.975885
H     -4.839461    0.729507   -2.800417
H      0.824148   -2.819149    0.842911
H      0.829536   -1.809427    2.331650
H     -0.739100   -1.315156   -0.234060
H     -1.465807   -1.778003    1.331283
H     -0.337206    2.112723   -1.420752
H     -0.216253    0.379712   -1.766582
H      3.216298   -2.434144    0.749936
H      2.255946    2.145657   -0.770929
H     -2.346398    0.010599    2.345591
H     -1.814083    1.694789    1.957906
H      0.265782    1.970063    0.745785
H     -6.606993    0.170507    0.314086
