39

C      3.484570   -1.212005   -0.376903
C      4.133005    1.146277   -0.154181
C     -1.591928   -2.421477   -0.770859
C     -0.892081    0.312209   -1.516909
C     -3.281021    0.693366    0.488965
C     -3.065371   -0.727258    0.140208
C     -2.200804    1.384157    1.231557
C      1.587748    1.050107    1.372331
C      0.171239    1.433359    1.575164
C      0.757152   -0.734281   -0.069776
C      3.119999    0.050169   -0.191856
C     -1.675345   -1.245049    0.198181
C      1.701711    0.453291   -0.012819
C     -0.838160    0.888656    0.910358
C     -0.650983   -0.184302   -0.126680
H      4.523946   -1.438519   -0.500271
H      2.737211   -1.975290   -0.398878
H      4.498142    1.355680    0.863501
H      5.000678    0.883529   -0.823302
H      3.709691    2.076501   -0.593752
H     -1.826127   -3.329449   -0.171689
H     -0.642204   -2.477823   -1.296496
H     -2.390048   -2.328347   -1.543276
H     -1.393624    1.301989   -1.529459
H     -1.505177   -0.430176   -2.062341
H      0.062922    0.441306   -2.072443
H     -3.522892    1.308899   -0.428276
H     -4.223324    0.795946    1.106487
H     -3.458597   -0.897805   -0.905752
H     -3.693194   -1.369891    0.803301
H     -2.408985    1.351316    2.320784
H     -2.200265    2.475993    0.969982
H      2.240397    1.934271    1.488060
H      1.877939    0.261351    2.100011
H     -0.015302    2.217510    2.327948
H      0.917610   -1.411285    0.770731
H      0.955698   -1.235010   -1.050365
H     -1.440052   -1.605798    1.243258
H      1.435827    1.207883   -0.754766
