48

C      1.821950    3.533555   -1.621583
C      3.936666   -2.419014    1.976207
C     -1.532576   -1.910226   -0.871321
C     -2.762046   -0.039704   -1.839705
C      1.210976    1.271119    0.004438
C      1.842581   -0.652901    1.177360
C     -1.918337    1.756549    0.016537
C     -0.978108   -3.635471    0.900520
C     -4.360361    3.162594   -2.240981
C     -1.907451   -0.473557   -0.841808
C      0.836400    0.197606    0.791527
C     -0.617980   -2.287099    0.267900
C     -1.497889    0.447517    0.077797
C     -3.195345    1.265960   -1.920552
C     -2.770392    2.178825   -0.982249
C      2.511024    1.524155   -0.402544
C      3.159568   -0.419083    0.779868
C     -0.560293    0.007736    1.196322
C     -0.999055   -1.397053    1.428365
C      3.500436    0.656568   -0.002661
C     -0.518215   -2.111607    2.579443
O      4.819667    0.896312   -0.404501
O     -0.179055   -1.737860    3.739739
O      2.809420    2.640465   -1.204280
O      4.178960   -1.279665    1.169507
O     -0.456161   -3.463816    2.232341
O     -4.042865    1.917360   -2.823756
O     -3.346781    3.413877   -1.285932
H      1.552087    4.288508   -0.854027
H      2.254968    4.116088   -2.482795
H      0.913246    3.048891   -2.022748
H      3.088184   -2.996923    1.541211
H      3.606830   -2.054785    2.969599
H      4.789381   -3.100694    2.013147
H     -2.424025   -2.562017   -0.854399
H     -0.980910   -2.082308   -1.818471
H     -3.115484   -0.728800   -2.592488
H      0.475868    1.981782   -0.338657
H      1.697484   -1.530260    1.802145
H     -1.571311    2.448274    0.769957
H     -0.512071   -4.474246    0.384735
H     -2.086180   -3.679611    0.917024
H     -4.348291    3.998042   -2.977231
H     -5.348014    3.091099   -1.743614
H      0.432758   -2.282276   -0.006216
H     -0.798468    0.611483    2.086965
H     -2.129553   -1.375143    1.402656
H      5.518764    0.239754   -0.092791
