37

C      3.318897    1.844335   -0.542346
C      2.212771   -3.556975    0.051067
C      2.975322   -2.451805    0.337001
C      0.884031   -3.442201   -0.248583
C      2.433777   -1.168816    0.335189
C     -3.050893    1.501915   -0.300381
C     -3.623024    0.386509    0.506286
C     -1.121135   -2.093255   -0.587256
C     -0.908771    2.697404    0.256711
C      0.323090   -2.146162   -0.254827
C     -1.587074    1.567078   -0.046303
C      1.099373   -1.038702    0.033471
C     -1.777166   -0.788234   -0.487603
C      0.429761    2.621174    0.470608
C     -0.924993    0.356638   -0.132880
C      0.450203    0.275498    0.090604
C      1.139977    1.399188    0.387965
N     -2.869237   -0.842559    0.482135
O      1.191157    3.733875    0.784195
O      2.498495    1.441853    0.611086
H      2.883297    1.303890   -1.405143
H      4.343691    1.504901   -0.343154
H      3.275620    2.944371   -0.645100
H      2.625404   -4.561691    0.049826
H      4.016959   -2.573283    0.568706
H      0.265063   -4.303780   -0.476374
H      3.092489   -0.391283    0.611170
H     -3.566988    2.434909   -0.003293
H     -3.184684    1.267341   -1.375353
H     -4.667192    0.199628    0.141029
H     -3.677847    0.706729    1.573258
H     -1.686583   -2.854911    0.049399
H     -1.257908   -2.509904   -1.619115
H     -1.435269    3.637953    0.324661
H     -2.304712   -0.564693   -1.468606
H     -2.560015   -1.164572    1.415071
H      0.744117    4.627638    0.856877
