48

C     -2.646367    3.100095   -1.840062
C     -3.310340   -2.551412    2.660825
C      2.948374   -0.329920   -1.667276
C      3.617858    0.442510    0.620608
C     -1.512182    0.696330   -0.720396
C     -1.768507   -1.109536    0.742374
C      1.169057   -0.196023    1.643118
C      1.641127   -0.141839   -3.831464
C      3.486065    0.977050    4.179994
C      2.678934   -0.094290   -0.226913
C     -0.975102   -0.445270   -0.188230
C      1.649235    0.030197   -2.349358
C      1.447129   -0.416725    0.283090
C      3.356551    0.662859    1.953930
C      2.109934    0.339321    2.480692
C     -2.768849    1.138944   -0.338088
C     -3.012592   -0.690080    1.134630
C      0.350884   -1.008590   -0.523186
C      0.688097   -1.078308   -1.952093
C     -3.529940    0.457139    0.587241
C     -0.382096   -0.857492   -2.926008
O     -4.780177    0.924252    0.948210
O     -1.633636   -1.001178   -2.870907
O     -3.315346    2.306215   -0.884196
O     -3.793197   -1.361938    2.063563
O      0.255970   -0.401146   -4.093567
O      4.151899    1.182919    2.949030
O      2.155794    0.675152    3.835699
H     -2.149140    2.429525   -2.573094
H     -1.853214    3.731055   -1.385701
H     -3.370135    3.703025   -2.431437
H     -4.127062   -3.073650    3.192476
H     -2.981504   -3.210603    1.840915
H     -2.513117   -2.350994    3.407575
H      3.805644    0.237528   -2.051906
H      3.164893   -1.403801   -1.824645
H      4.587047    0.700809    0.239980
H     -0.943175    1.244646   -1.441165
H     -1.398940   -2.028587    1.205305
H      0.197702   -0.450294    2.045094
H      2.293108   -0.935280   -4.206566
H      1.961434    0.809536   -4.312907
H      3.996016    0.116546    4.678589
H      3.575932    1.894145    4.795175
H      1.327298    1.025528   -2.057366
H      0.321920   -2.095270   -0.162340
H      1.178057   -2.044365   -2.243469
H     -5.351345    0.451264    1.614227
