51

C      0.343614   -3.000753    0.219105
C      6.176374    3.208573   -0.035518
C      1.362303   -2.470573   -0.387314
C      3.196858   -1.163306    1.229556
C      2.229110   -0.650114    2.205363
C     -4.576912   -1.952066    0.908333
C      2.338633    1.628101   -0.750800
C      1.626153   -1.045078   -0.714029
C      3.001194   -0.659065   -0.179334
C      3.263032    0.748229   -0.361361
C     -3.606419   -0.818918    0.832488
C     -4.266936    0.501665    0.542019
C     -3.954672    0.958066   -0.885101
C     -2.460414    1.120173   -0.988620
C      4.592714    1.321039   -0.120340
C      0.582771   -0.068056   -0.369109
C     -1.740458   -0.035959   -0.246528
O      2.302684    0.490500    2.620622
O     -5.237339   -2.176555   -0.303082
O     -3.684963    1.482221    1.378676
O     -4.489382    0.134716   -1.842530
O     -2.113668    2.324839   -0.384890
O      5.506282    0.547856    0.244001
O      4.884966    2.668907   -0.275089
O      1.068498    1.193819   -0.995945
O     -2.616132   -1.098291   -0.143481
O     -0.642236   -0.321892   -1.001525
H      0.321362   -4.087409    0.372183
H     -0.466525   -2.433603    0.592071
H      6.891631    2.384735    0.141757
H      6.545798    3.849819   -0.859232
H      6.137028    3.802334    0.921697
H      2.151006   -3.207235   -0.707764
H      3.204831   -2.270068    1.187533
H      4.205446   -0.861480    1.559422
H      1.439527   -1.325665    2.548115
H     -4.081252   -2.911366    1.217320
H     -5.363683   -1.752634    1.668592
H      2.588421    2.698600   -0.876581
H      1.745142   -1.004670   -1.840374
H      3.723565   -1.266714   -0.802722
H     -3.080330   -0.753703    1.808506
H     -5.352841    0.483212    0.700301
H     -4.422490    1.982943   -0.963436
H     -2.187335    1.095970   -2.057582
H      0.383922    0.180754    0.671531
H     -1.495440    0.321967    0.776131
H     -6.097837   -2.665063   -0.095476
H     -3.937717    2.386642    1.063836
H     -3.857447   -0.540488   -2.191711
H     -2.080439    3.025047   -1.094036
