47

C      1.316182    2.195240   -1.997222
C      1.400387    1.568120   -0.829374
C      3.410204    1.015622    1.217282
C      4.806987    1.015183    1.727836
C     -3.730535    2.138755   -0.298077
C      2.882803   -2.227426    0.246897
C      1.975739    0.200808   -0.698426
C      3.300257    0.188521   -0.043393
C      3.683194   -1.185257    0.359416
C     -3.040434    0.835419   -0.012715
C     -4.056278   -0.266173   -0.004008
C     -3.426572   -1.624154    0.220438
C     -2.233860   -1.726736   -0.707012
C      5.037168   -1.295416    0.914364
C      0.960647   -0.769213   -0.134754
C     -1.327363   -0.543752   -0.418951
O     -2.883992    3.233553   -0.199122
O     -4.989462    0.030152    0.991604
O     -4.347733   -2.614282   -0.159383
O     -1.564808   -2.936364   -0.561512
O      5.602306   -2.393545    0.962271
O      5.600260   -0.083004    1.365162
O      1.577607   -2.068314   -0.281446
O     -1.986576    0.588369   -0.891343
O     -0.120793   -0.779200   -1.013780
H      0.911366    3.171896   -2.128686
H      1.695806    1.653778   -2.881125
H      1.036647    2.066903    0.071457
H      3.069574    2.051264    1.047411
H      2.721684    0.561159    1.980030
H      4.751970    1.001663    2.855865
H      5.284082    1.990117    1.466433
H     -4.212239    2.065541   -1.290690
H     -4.537396    2.255715    0.450900
H      3.257316   -3.188705    0.568376
H      2.145390   -0.162098   -1.758549
H      4.031892    0.620659   -0.768488
H     -2.579384    0.881436    1.008621
H     -4.598483   -0.263130   -0.959148
H     -3.117452   -1.744027    1.275960
H     -2.627888   -1.614377   -1.741350
H      0.690285   -0.574975    0.902568
H     -1.205199   -0.384859    0.688343
H     -2.395263    3.134683    0.662045
H     -5.802905   -0.501243    0.856616
H     -5.118361   -2.208879   -0.662950
H     -1.246777   -3.309425   -1.398391
