26

C     -2.819586    0.418026    0.904979
C      3.085513   -0.743710    0.274047
C     -1.480468   -1.301860   -0.342137
C     -0.010955   -1.258162   -0.784836
C      2.156292    1.333895   -0.468139
C     -1.777731    0.142571   -0.129401
C      1.902977    0.132607    0.009352
C      0.553216   -0.345897    0.276694
C     -0.470551    0.736219    0.335775
C     -0.158492    1.885600   -0.538988
O     -1.112528    2.510437   -1.061932
O      1.152422    2.234733   -0.753271
H     -3.675909   -0.280325    0.800714
H     -3.182782    1.471974    0.730350
H     -2.373705    0.400108    1.905264
H      2.786350   -1.767019    0.567832
H      3.720670   -0.305599    1.072297
H      3.744436   -0.775834   -0.637363
H     -2.109501   -1.771545   -1.121829
H     -1.559442   -1.878015    0.598369
H      0.084521   -0.878363   -1.800857
H      0.389786   -2.297364   -0.691189
H      3.203648    1.658730   -0.657063
H     -2.091535    0.574684   -1.119492
H      0.581259   -0.961931    1.218600
H     -0.537904    1.066040    1.412222
