39

C      5.867232    0.047173    0.908002
C      3.205324    0.768446    0.171908
C      1.891550    1.100295   -0.181864
C     -3.843828   -1.129074   -0.362622
C     -3.625807   -1.951030    0.846243
C      2.429291   -1.297036    0.994808
C      0.029077   -1.908415    0.987607
C     -3.078435    1.141534   -1.113749
C     -0.805103    3.824966   -2.053666
C     -2.825188   -0.084414   -0.574872
C      1.093654   -0.970539    0.641645
C      3.466343   -0.440114    0.762808
C      0.844007    0.239851    0.048747
C     -1.262111   -1.716636    0.316334
C     -2.081310    2.075163   -1.298772
C     -1.500415   -0.373089   -0.207965
C     -0.520311    0.566717   -0.397348
C     -0.759310    1.810742   -0.941701
N     -2.295049   -2.125278    1.265284
O      4.778592   -0.803561    1.129274
O     -2.143456    3.355816   -1.824152
O     -0.069759    2.947271   -1.266307
H      5.584094    1.059892    1.254823
H      6.218783    0.076158   -0.129683
H      6.707848   -0.294537    1.542580
H      3.969256    1.498027   -0.042719
H      1.687337    2.046733   -0.646265
H     -4.868273   -0.673114   -0.306915
H     -3.890551   -1.799190   -1.269422
H     -4.094756   -2.950525    0.682956
H     -4.208621   -1.491794    1.691835
H      2.586391   -2.262226    1.458831
H      0.445620   -2.954913    0.836643
H     -0.139324   -1.845475    2.128369
H     -4.122789    1.352377   -1.395949
H     -0.767067    4.878576   -1.710262
H     -0.560208    3.709784   -3.125918
H     -1.287592   -2.436036   -0.569365
H     -2.055135   -2.992527    1.750816
