45

C     -1.951837   -3.769062   -0.197364
C      6.074115    0.525136   -0.103234
C     -3.013851    4.479851    0.067134
C      2.656215   -1.872635    0.200122
C      3.775845   -1.085546    0.100762
C     -3.495905   -0.752046    0.469726
C     -3.236879   -1.781937   -0.584028
C      0.294637   -2.266749    0.324367
C     -2.661594    1.608088    0.258179
C      1.392801   -1.292078    0.225516
C     -2.407419    0.270560    0.342791
C     -1.042961   -1.685633    0.429686
C      3.649713    0.274262    0.026521
C     -1.599872    2.472174    0.141158
C     -1.119027   -0.235501    0.314337
C      1.284324    0.090252    0.149375
C     -0.058997    0.651722    0.195285
C      2.383188    0.883300    0.050650
C     -0.276767    1.999499    0.108098
N     -1.917807   -2.364844   -0.529302
O      2.379396    2.233218   -0.028058
O      0.684485    2.921826   -0.008749
O      4.786019    1.073404   -0.074504
O     -1.769293    3.840644    0.050201
H     -1.091640   -3.997279    0.460890
H     -2.925818   -4.006900    0.307121
H     -1.847669   -4.410064   -1.111797
H      6.792928    1.363805   -0.296895
H      6.319182    0.095268    0.894590
H      6.189845   -0.223509   -0.910762
H     -2.829232    5.567903    0.285068
H     -3.674739    4.126017    0.888375
H     -3.480518    4.346163   -0.934428
H      2.794008   -2.952435    0.257397
H      4.763046   -1.546288    0.081210
H     -4.484352   -0.301928    0.259675
H     -3.418105   -1.211501    1.454926
H     -3.996009   -2.609798   -0.515156
H     -3.363970   -1.337803   -1.588835
H      0.518029   -2.877888    1.250653
H      0.405352   -3.010348   -0.503197
H     -3.660572    1.988023    0.281311
H     -1.515298   -1.938394    1.429594
H      3.224324    2.800802   -0.100310
H      0.472678    3.918249   -0.071692
