76

C      3.740920    1.984561   -2.820030
C     -4.016046   -2.978187   -1.131874
C      3.608901    2.392417    0.764198
C      5.360299    1.345151   -0.571756
C     -4.771448   -0.200486   -0.708738
C     -3.019570   -0.360286   -2.377765
C      3.309574    2.134147   -1.587620
C     -3.247714   -2.064676   -0.589787
C      2.821378   -4.475815    0.409378
C     -5.374781    2.507930    2.799169
C      3.132008   -4.128933    1.704617
C     -5.355475    3.401237    1.740136
C      2.872246   -3.483260   -0.576989
C     -4.556325    1.392671    2.803916
C      3.489922   -2.827901    2.054366
C     -4.510578    3.162053    0.694732
C      2.117004   -0.936253   -1.886452
C     -1.407340    0.493508    2.075400
C      3.225832   -2.220373   -0.203990
C     -3.706032    1.153206    1.751325
C      3.538530   -1.854792    1.086763
C     -3.697227    2.046134    0.707896
C      1.171791   -0.052146   -1.177093
C     -0.524414    0.921097    0.922096
C      0.913981    0.552537    1.187236
C     -0.174967   -0.635524   -0.980295
C      3.872842    1.428011   -0.431524
C     -3.306508   -0.616672   -0.913944
C      3.352251   -0.982373   -1.041487
C     -2.734061    0.097722    1.447632
C      3.223813    0.147640   -0.058797
C     -2.483365    0.194721    0.000423
N      3.851973   -0.463671    1.116305
N     -2.762931    1.624471   -0.271779
N      1.784241    0.252562    0.111750
N     -1.063717    0.066581   -0.131535
O      1.280154    0.528202    2.386956
O     -0.534514   -1.717239   -1.539966
O      4.535792   -0.985227   -1.761092
O     -3.153587   -1.149080    1.911656
H      3.267916    2.553458   -3.655402
H      4.535346    1.351723   -3.152630
H     -4.776687   -2.722901   -1.885589
H     -3.977994   -4.034853   -0.895399
H      2.533716    2.475098    0.958969
H      3.997685    3.395199    0.423782
H      4.235283    2.076601    1.607910
H      5.845670    0.757024    0.232424
H      5.756985    2.392494   -0.434225
H      5.698486    1.037434   -1.579011
H     -5.094460   -0.324807    0.326070
H     -4.839735    0.835885   -1.102337
H     -5.352924   -0.827983   -1.430874
H     -2.129459    0.289639   -2.519736
H     -3.849159    0.154635   -2.909602
H     -2.906962   -1.348131   -2.881899
H      2.485314    2.829181   -1.434408
H     -2.521901   -2.452616    0.148827
H      2.541500   -5.477005    0.118537
H     -6.041151    2.694783    3.625746
H      3.091200   -4.890382    2.468844
H     -5.988752    4.281446    1.716334
H      2.627361   -3.770841   -1.599169
H     -4.601747    0.724223    3.645513
H      3.729277   -2.586369    3.082694
H     -4.474888    3.845319   -0.151053
H      1.705376   -1.970421   -2.059209
H      2.405027   -0.545728   -2.913088
H     -0.916330   -0.376503    2.564678
H     -1.504276    1.283813    2.832873
H      1.096209    0.915482   -1.722863
H     -0.623924    1.983219    0.677118
H      4.411325    0.058687    1.810044
H     -2.321971    2.152140   -1.050294
H      4.305143   -1.340756   -2.672828
H     -3.149358   -1.111854    2.895811
