38

C      3.423870   -1.639077   -0.355487
C      1.973997    2.580062    1.049792
C     -2.829235   -2.412225    1.082034
C     -1.478628   -2.043431    1.054805
C     -3.830448   -1.639316    0.511965
C      1.043189   -1.102119   -0.729578
C     -0.550056    1.584412   -0.870727
C     -3.200136    1.495388   -1.172152
C      2.696711    0.646606   -0.009723
C      2.444670   -0.562593   -0.845979
C     -1.943744    1.073027   -0.765940
C     -1.093583   -0.868216    0.443385
C      0.324795   -0.422637    0.386260
C     -3.431724   -0.447714   -0.106951
C      0.340973    1.083570    0.245197
C     -2.099921   -0.119711   -0.113753
N     -4.078883    0.535350   -0.748060
N      1.655756    1.606738    0.019639
H      3.081000   -1.884168    0.691563
H      3.426214   -2.519493   -1.005093
H      4.399571   -1.139469   -0.245080
H      1.079919    3.102455    1.426604
H      2.404094    2.015945    1.907247
H      2.767550    3.267295    0.696613
H     -3.117980   -3.341882    1.567827
H     -0.740137   -2.683096    1.514525
H     -4.861197   -1.906024    0.524478
H      0.484199   -0.936661   -1.692551
H      1.069571   -2.190403   -0.515260
H     -0.132914    1.357807   -1.868566
H     -0.605953    2.686429   -0.756032
H     -3.399978    2.403933   -1.711391
H      3.619548    1.135761   -0.384892
H      2.919053    0.329910    1.047768
H      2.667582   -0.422583   -1.923585
H      0.794483   -0.668375    1.353675
H     -0.112795    1.481407    1.198928
H     -5.109433    0.563100   -0.901505
