76

C     -3.558261   -2.149137   -3.305164
C      3.949648   -0.679995    3.489269
C     -5.303137   -1.224911   -0.775398
C     -3.440576   -2.818612   -0.712186
C      3.077959   -2.248226    1.158873
C      4.849213   -0.621571    0.760725
C     -3.543842   -1.141181   -2.442010
C      3.233801   -0.192262    2.495436
C     -3.672391    2.877311    3.161165
C      5.554832    2.465233   -2.342727
C     -3.878836    3.683319    2.069934
C      5.770813    1.269822   -2.980916
C     -3.499346    1.514413    3.009623
C      4.567142    2.588302   -1.395368
C     -3.907714    3.080581    0.807614
C      4.982123    0.180683   -2.662328
C     -2.104735   -1.130715    1.818071
C      1.391022    1.635550   -0.920674
C     -3.524694    0.902231    1.772518
C      3.791242    1.481332   -1.095151
C     -3.732545    1.717917    0.680770
C      3.980861    0.267863   -1.715705
C     -1.151291   -1.263841    0.655506
C      0.667139    0.285724   -1.031625
C     -0.797588    0.445518   -1.055967
C      0.262543   -0.925551    1.038971
C     -3.795917   -1.391039   -1.008790
C      3.389292   -0.745986    1.147056
C     -3.374651   -0.495889    1.295788
C      2.686165    1.323491   -0.150188
C     -3.110274   -0.369596   -0.181882
C      2.575707   -0.124248    0.090375
N     -3.728632    0.923878   -0.496671
N      3.041761   -0.670507   -1.198864
N     -1.687810   -0.317434   -0.276139
N      1.166521   -0.330074    0.162338
O     -1.258103    1.325211   -1.829475
O      0.553017   -1.235688    2.241812
O     -4.503099   -1.200035    1.624057
O      2.795219    2.129823    0.969801
H     -3.746803   -3.175827   -3.032429
H     -3.372607   -1.977402   -4.371835
H      4.669721   -1.479147    3.411781
H      3.822569   -0.259689    4.477829
H     -5.838107   -1.215205   -1.764906
H     -5.696669   -2.077283   -0.174902
H     -5.552194   -0.302849   -0.255851
H     -2.603439   -3.171647   -1.349441
H     -3.347098   -3.056920    0.350676
H     -4.325202   -3.430274   -1.067966
H      2.920379   -2.619760    2.193135
H      3.939989   -2.835444    0.764115
H      2.242613   -2.465120    0.471582
H      5.164924    0.439338    0.652985
H      5.467897   -1.072645    1.590359
H      5.088957   -1.242005   -0.129429
H     -3.347242   -0.143946   -2.807250
H      2.542709    0.606676    2.695994
H     -3.649307    3.336908    4.135801
H      6.177438    3.328998   -2.592658
H     -4.016576    4.752560    2.166182
H      6.564544    1.238026   -3.717555
H     -3.339870    0.928053    3.908821
H      4.437982    3.547296   -0.923670
H     -4.069643    3.692058   -0.080492
H      5.183626   -0.742095   -3.186729
H     -2.268834   -2.096636    2.299482
H     -1.617723   -0.437994    2.550575
H      1.591582    2.078862   -1.895406
H      0.777895    2.245749   -0.247300
H     -1.078956   -2.301441    0.268656
H      1.036211   -0.170705   -1.967095
H     -4.087343    1.166947   -1.443427
H      2.767168   -1.546985   -1.662206
H     -4.891835   -0.777012    2.453645
H      3.740666    2.414860    1.061106
