58

C      3.787717    0.840368   -1.090921
C     -1.064291    0.947300    0.799085
C      1.591061    0.156214   -0.068141
C     -3.269949   -1.172326   -1.312398
C      2.977298    0.105240   -0.100061
C     -2.212348    0.814039   -0.208626
C     -2.451955   -0.679936   -0.158839
C     -0.563719   -0.469616    0.877624
C      3.636856   -0.665990    0.834164
C      1.564052   -1.259473    1.733100
N     -2.920190    3.901978    0.922351
N      2.906059   -1.337931    1.739192
N     -3.337992    1.581404    0.228331
N     -3.113238    2.742212    0.621377
N      0.875274   -0.523097    0.845209
O     -3.314230   -2.562318   -1.244642
O      5.019436   -0.783844    0.887487
O      0.916009   -1.909956    2.605077
O     -1.145983   -1.169629   -0.177616
C     -2.533478   -0.743939    1.465943
C     -1.277018   -0.306571    1.107414
C      3.664254   -0.246627    0.476898
C      0.631502    0.954660   -1.815792
C     -3.542097   -0.690937    0.532626
C      0.307373    0.595318   -0.404673
C      2.422574    0.517219    0.154594
C     -2.005965    0.217600   -1.035331
N     -4.754698   -1.088042    0.803115
N     -3.239971   -0.212075   -0.682826
N     -1.015029    0.173737   -0.143181
O      3.462931   -0.878026    1.703827
O     -1.725219    0.706338   -2.297128
O      1.289132   -0.292868    0.060293
S      2.460161    1.154646   -1.575156
H      4.589663    1.419401   -0.546159
H      3.193953    1.603468   -1.637727
H      4.306315    0.182873   -1.799382
H     -0.320730    1.675498    0.480084
H     -1.548189    1.216457    1.782981
H      1.095473    0.757409   -0.797664
H     -4.299649   -0.810330   -1.180886
H     -2.864776   -0.802479   -2.260672
H     -1.813175    1.089879   -1.187288
H     -2.911208   -0.960348    0.795402
H     -0.916012   -0.963035    1.816626
H     -4.011171   -2.800842   -0.583887
H      5.619635   -0.162586    0.349041
H     -2.757392   -1.126340    2.449898
H     -0.488875   -0.357063    1.864123
H      3.991328   -0.924103   -0.308426
H      4.467488    0.521749    0.669780
H      0.530359    0.170091   -2.551129
H      0.234320    1.944246   -2.084578
H      0.487807    1.536398    0.199550
H      2.220069    1.305533    0.874127
H     -4.998841   -1.458248    1.734694
H      4.127081   -1.585919    1.881620
H     -1.957794    0.113224   -3.080283
