42

C      4.188876   -0.322687    0.781277
C     -1.101232    1.535125   -1.295030
C     -1.996766   -1.379408   -1.520164
C     -3.105549    0.128566    0.793323
C      1.554011    1.708147    0.042856
C     -2.111231    1.223010    0.927306
C     -2.534381   -1.251925    0.901958
C      0.194218    1.929248    0.722318
C      3.189578   -0.169852   -0.355746
C      1.896592    0.282608    0.237791
C      0.872390   -0.527767   -0.578158
C     -0.399211   -0.398710    0.161975
C      2.824764   -1.557066   -0.799193
C     -0.870160    1.027517    0.079245
C     -1.446907   -1.405334   -0.144117
O      3.633907   -2.394690   -1.284812
O     -0.883352   -2.676759    0.068870
O      1.468013   -1.777523   -0.594697
H      5.010889    0.419857    0.715595
H      3.713556   -0.169239    1.775727
H      4.643328   -1.326398    0.799091
H     -0.598975    2.529439   -1.484696
H     -0.816141    0.888682   -2.116095
H     -2.196089    1.765344   -1.429176
H     -2.599718   -2.327534   -1.652528
H     -1.160929   -1.481552   -2.242419
H     -2.690347   -0.561783   -1.744722
H     -3.708978    0.184315   -0.142698
H     -3.846037    0.240988    1.622562
H      2.261045    2.356052    0.589385
H      1.512145    2.004426   -1.020574
H     -2.593450    2.165401    0.536289
H     -1.876212    1.435462    1.987510
H     -2.010583   -1.331876    1.892940
H     -3.333959   -1.985849    0.793786
H      0.312608    1.618574    1.768273
H     -0.113163    2.987236    0.675584
H      3.558800    0.448062   -1.172781
H      1.787271    0.010777    1.302967
H      0.893614   -0.083285   -1.586435
H     -0.158354   -0.554650    1.260146
H     -1.363882   -3.204951    0.727269
