42

C      4.180185   -0.432635   -0.459297
C     -0.821983    1.648712    1.064954
C     -1.172124   -2.466679    0.760382
C     -3.196150    0.674918    0.158215
C      1.568809    1.599338   -0.639494
C     -2.235040    1.263239   -0.874604
C     -2.822395   -0.698906    0.574711
C      0.182420    1.839449   -1.137853
C      3.005665   -0.167655    0.459983
C      1.822940    0.176729   -0.377340
C      0.699474   -0.491220    0.434976
C     -0.510578   -0.380756   -0.396120
C      2.577852   -1.522263    0.978493
C     -0.871536    1.110911   -0.325882
C     -1.630756   -1.282057   -0.105816
O      3.306038   -2.334829    1.635566
O     -2.104519   -1.891310   -1.295574
O      1.249743   -1.748014    0.623176
H      5.131834   -0.475859    0.080237
H      4.202322    0.306466   -1.301106
H      4.037380   -1.433900   -0.955592
H      0.156831    2.138008    1.320071
H     -1.106970    0.962504    1.856177
H     -1.562647    2.501070    1.108310
H     -0.553935   -3.169652    0.194614
H     -2.130113   -3.021099    0.987569
H     -0.773461   -2.143955    1.722251
H     -4.232122    0.753381   -0.262555
H     -3.222225    1.315560    1.080288
H      2.264630    1.918243   -1.473121
H      1.859354    2.282700    0.210013
H     -2.554280    2.311291   -1.027034
H     -2.394926    0.656608   -1.804389
H     -2.697886   -0.819753    1.689002
H     -3.711563   -1.362057    0.350303
H      0.118525    1.434058   -2.176813
H     -0.062234    2.909615   -1.178915
H      3.226185    0.522797    1.269724
H      1.879197   -0.374926   -1.333585
H      0.643617    0.012927    1.423461
H     -0.202617   -0.524520   -1.475822
H     -1.542940   -1.596478   -2.061188
