40

C      4.275216   -0.872835    0.081105
C     -0.623509   -1.878303   -0.427063
C     -0.619649    2.497427   -1.318182
C     -2.977515   -0.312969   -0.355442
C      1.472522   -1.443576    1.248406
C     -2.247357   -0.680019    0.901315
C     -2.275895    0.621767   -1.265765
C      0.041774   -1.253530    1.781952
C      3.211625   -0.090961    0.037209
C      1.924472   -0.181741    0.693527
C      1.036347    0.400000   -0.412749
C     -0.288134    0.561455    0.220236
C      3.089210    1.158088   -0.760749
C     -0.788766   -0.804096    0.572299
C     -1.268450    1.422717   -0.479978
O      4.018199    1.686848   -1.451643
O     -2.046564    2.119601    0.479400
O      1.767737    1.622720   -0.598077
H      4.320083   -1.771346    0.675093
H      5.144871   -0.613311   -0.497938
H      0.338918   -1.950748   -0.935349
H     -0.712125   -2.858105    0.143510
H     -1.468685   -1.965944   -1.166687
H     -0.015196    2.122421   -2.140681
H     -0.020881    3.127669   -0.624685
H     -1.461334    3.171153   -1.655777
H     -3.349783   -1.229978   -0.893943
H     -3.932887    0.192074   -0.019507
H      2.072965   -1.641087    2.187123
H      1.571370   -2.339363    0.641181
H     -2.452903    0.005944    1.739307
H     -2.605434   -1.682378    1.220037
H     -1.807673    0.181445   -2.157712
H     -3.001140    1.386454   -1.681010
H      0.069515   -0.414657    2.504534
H     -0.349180   -2.161917    2.238761
H      1.899514    0.602185    1.505317
H      1.101287   -0.120418   -1.354342
H     -0.082235    1.080692    1.211233
H     -2.960334    2.306623    0.115735
