43

C      0.333468   -2.923001    0.067579
C      3.227169   -0.386042   -1.795373
C      4.416110    0.128917   -1.335403
C     -2.127782   -2.081847    1.315109
C     -0.734922   -1.902986    1.876678
C     -3.762949   -0.394138    0.477510
C     -1.794782    1.033014   -0.711288
C      0.641508   -0.584044   -1.307029
C     -5.015910    2.698540   -1.014236
C      4.870736    2.357675    1.466198
C     -2.454073   -0.836192    0.570574
C      2.040796   -0.173012   -1.066407
C     -1.445771   -0.113392   -0.033161
C      4.441993    0.852198   -0.161634
C     -4.101408    0.759231   -0.206555
C     -3.111433    1.477168   -0.804569
C      2.081704    0.547262    0.098341
C      3.286504    1.072243    0.569242
C      0.741880    0.616539    0.660466
C     -0.004497   -0.537133    0.029262
N      0.185995   -1.709235    0.805488
O      0.337838    1.459182    1.480860
O      5.468818    1.478476    0.532013
O     -5.294109    1.424733   -0.458216
O     -3.685162    2.580946   -1.423387
O      3.566738    1.817444    1.697086
H      0.337516   -3.763786    0.813183
H      1.305392   -3.002813   -0.471071
H     -0.508618   -3.147574   -0.618547
H      3.154073   -0.959543   -2.709195
H      5.345082   -0.023627   -1.882897
H     -2.812992   -2.227620    2.187304
H     -2.227664   -2.981936    0.689561
H     -0.472117   -2.833772    2.405521
H     -0.789576   -1.038417    2.577653
H     -4.532257   -0.987583    0.964797
H     -1.038032    1.634158   -1.201659
H      0.197997    0.207089   -1.974439
H      0.564813   -1.562070   -1.817668
H     -5.677866    2.800682   -1.908027
H     -5.153036    3.509957   -0.292764
H      5.394933    2.316616    2.443501
H      4.803894    3.397695    1.066800
