92

C     -4.117995    2.743201   -3.199560
C      2.683025    0.099941   -1.786468
C      6.294151    3.902817    0.561623
C     -0.195631   -6.996257   -2.362657
C     -4.394473    1.851513    3.841335
C     -2.925644   -2.267988    2.950597
C     -2.616802   -4.822049    0.715853
C     -1.320077    3.846807    1.473824
C     -0.400056    4.200495   -0.702576
C      4.514680    0.201450    1.043797
C      0.003502    3.743773    1.972628
C      0.907703    4.086059   -0.122683
C      5.127700    1.420654    0.878937
C      3.284019   -3.443175   -1.317218
C     -1.427314    0.657806   -1.828626
C      3.518403   -2.058101   -1.848348
C     -2.708854    0.961317   -2.634387
C     -2.874767    3.997557   -0.495768
C      2.758164   -1.391939    1.342457
C      2.417383    1.159159    1.778757
C      1.215479   -4.692063   -1.493444
C     -3.294684    1.632977    1.234453
C     -1.490016    4.068885    0.124425
C      3.184563    0.055606    1.481424
C      1.829826   -3.549982   -1.042790
C      1.112332    3.853769    1.185332
C     -1.886750    0.447943   -0.402178
C     -2.742649    1.515143   -0.050945
C     -3.179995    2.568870   -0.986531
C      2.044609   -1.389752   -0.013255
C      4.344083    2.513091    1.168758
C      3.036751    2.380059    1.597561
C     -0.142189   -4.822467   -1.244638
C     -3.009914    0.709450    2.172859
C      1.212910   -2.523368   -0.366201
C     -1.588071   -0.497166    0.521855
C     -2.185533   -0.309256    1.810141
C     -0.762455   -3.798562   -0.567029
C     -0.179577   -2.632291   -0.097600
N     -2.968620    2.384325   -2.371337
N      3.056010   -1.071727   -0.967171
O      4.989173    3.752194    0.991160
O     -0.812256   -5.954309   -1.677075
O     -3.544681    0.794487    3.481068
O     -1.943702   -1.226851    2.863062
O     -2.146430   -4.064074   -0.379359
O      2.456269    3.682141    1.782957
O     -0.838765   -1.648895    0.570174
H     -4.886899    1.936937   -3.102648
H     -3.848622    2.969029   -4.229278
H     -4.561597    3.647323   -2.722292
H      2.234632    0.859933   -1.105976
H      3.541785    0.484531   -2.364052
H      1.900825   -0.190813   -2.535645
H      6.327091    3.699538   -0.543789
H      7.064909    3.356631    1.097393
H      6.538022    4.998576    0.635448
H     -0.799830   -7.942182   -2.296101
H      0.805092   -7.266094   -1.922541
H     -0.032543   -6.816246   -3.424058
H     -5.158653    1.952517    3.015419
H     -3.880649    2.813046    3.966235
H     -4.992640    1.585456    4.738439
H     -3.563423   -2.331947    2.056665
H     -3.604126   -2.095165    3.827715
H     -2.465332   -3.253393    3.118753
H     -1.892462   -4.976184    1.514279
H     -2.803220   -5.852873    0.285580
H     -3.582994   -4.498238    1.099637
H     -2.054945    3.750483    2.326074
H     -0.287132    4.400618   -1.807436
H      5.150761   -0.667581    0.806707
H     -0.047620    3.576619    3.082787
H      1.653070    4.255369   -0.955511
H      6.153144    1.509787    0.545176
H      3.605221   -4.205396   -2.081510
H      3.919240   -3.690622   -0.432225
H     -0.941162   -0.108161   -2.358778
H     -0.804298    1.588218   -1.877546
H      4.623833   -1.966829   -2.058845
H      3.040102   -1.942424   -2.845875
H     -2.490520    0.831620   -3.690508
H     -3.484801    0.304059   -2.231088
H     -3.716446    4.386208    0.146838
H     -3.082691    4.619671   -1.382640
H      2.273672   -1.889759    2.143524
H      3.656620   -2.053777    1.147355
H      1.377665    1.071052    2.235540
H      1.763575   -5.464946   -2.023443
H     -3.955412    2.475514    1.474819
H     -4.354276    2.546666   -0.896614
H      1.370198   -0.477988    0.036823
