25

C     -1.809378   -1.028715    0.913593
C     -1.149536   -0.831150   -1.452024
C      1.729510   -1.104983   -0.383172
C     -1.254936   -0.097633   -0.170828
C      1.099602   -0.333756    0.710977
C      0.390623    1.672220   -0.578950
C     -0.023711    0.589007    0.322927
O      2.132158    0.433213    1.311354
O      0.825705    1.500432   -1.748262
O      0.320025    2.997645   -0.168942
O     -0.432052    1.189952    1.547561
H     -2.870104   -1.231736    0.627988
H     -1.801641   -0.511860    1.899458
H     -1.273090   -1.980975    0.935734
H     -2.185697   -1.020495   -1.873210
H     -0.670570   -0.205304   -2.239703
H     -0.686897   -1.815459   -1.398757
H      1.485908   -0.800435   -1.403593
H      1.391349   -2.180448   -0.287988
H      2.837898   -1.184806   -0.214054
H     -2.040291    0.714806   -0.250443
H      0.759517   -1.010961    1.522034
H      2.113873    1.301272    0.798388
H      0.820434    3.746587   -0.624107
H      0.291298    1.193581    2.204020
