43

C      0.279171   -2.007082    2.623188
C     -3.135399   -1.148039   -0.881318
C     -4.237838   -0.350273   -0.663800
C      3.045659   -1.785254    0.275737
C      1.887949   -2.543090    0.914404
C      3.507124    0.082212   -1.224274
C      0.961254    1.065799   -0.994964
C     -0.646896   -1.626536   -0.251331
C      3.169925    3.259575   -2.932892
C     -4.437579    2.700121    1.319936
C      2.562911   -0.566056   -0.416981
C     -1.945668   -0.922671   -0.195253
C      1.283280   -0.074340   -0.299826
C     -4.194499    0.684612    0.231454
C      3.170089    1.226563   -1.916932
C      1.896655    1.717663   -1.801599
C     -1.920656    0.123059    0.701545
C     -3.033414    0.934822    0.926631
C     -0.576835    0.157228    1.289217
C      0.296865   -0.768800    0.555749
N      1.040972   -1.542518    1.522224
O     -0.258159    0.874726    2.263138
O     -5.122194    1.649442    0.663355
O      3.904373    2.048082   -2.771009
O      1.839211    2.855992   -2.592154
O     -3.250709    2.022555    1.758172
H      0.516578   -3.015897    2.982782
H     -0.811607   -1.878440    2.417363
H      0.480362   -1.313466    3.491756
H     -3.163061   -1.965636   -1.585863
H     -5.149694   -0.544652   -1.207972
H      3.645718   -2.437219   -0.388010
H      3.700751   -1.457558    1.113046
H      2.223912   -3.247210    1.673140
H      1.390806   -3.102972    0.099762
H      4.516706   -0.293937   -1.325121
H     -0.031468    1.448110   -0.904670
H     -0.281567   -1.771982   -1.300330
H     -0.790018   -2.633992    0.191680
H      3.265464    3.553646   -3.978378
H      3.579612    3.979567   -2.221556
H     -5.010464    3.084166    2.186164
H     -4.167622    3.529679    0.653792
