99

C      4.518168    2.312296    1.090904
C     -4.170388    2.830604    1.689221
C     11.555240    1.127569   -1.893342
C      9.142161   -3.318272    0.359227
C     -4.739872   -4.637637    2.119956
C     -8.339447    2.232816   -3.257682
C     -0.316933   -3.864491    2.053523
C     -6.681559   -2.956466   -1.088357
C     -9.547963   -0.353478   -0.039039
C      2.866937   -1.274611    1.245552
C      2.353153    0.075747   -0.579808
C      1.588820   -1.145912    1.726745
C      1.051262    0.238771   -0.139402
C      6.837860    2.596645   -0.984750
C     -5.473134    3.343879   -1.459150
C      5.367718    2.281830   -1.163726
C     -4.729667    3.956928   -0.292282
C      4.659269   -0.829670   -0.402283
C      8.882127    1.253110   -1.134922
C     -2.452279    1.038893    0.043640
C      7.618015   -0.894540   -0.016723
C     -4.288687   -2.141455    1.010951
C      3.281134   -0.668773    0.082646
C      7.566073    1.328005   -0.765918
C      0.640240   -0.370680    1.025347
C     -5.862744    1.958822   -1.120333
C      6.891692    0.257942   -0.195403
C     -4.016866   -0.906969    0.479434
C     -2.811938   -0.274752    0.637396
C      5.482521    0.301587    0.212587
C     -3.570669    1.862988   -0.428426
C      9.597622    0.100831   -0.953136
C      8.953402   -0.991899   -0.383888
C     -3.285170   -2.765463    1.739417
C     -4.866629    1.177821   -0.553729
C     -5.101216   -0.148273   -0.158198
C     -7.110138    1.403247   -1.295714
C     -1.794460   -0.892904    1.372818
C     -2.065811   -2.150550    1.914056
C     -6.344842   -0.653601   -0.356448
C     -7.375547    0.115159   -0.927626
N      4.825049    1.535737   -0.071429
N     -3.764904    3.072830    0.326917
O     10.913655    0.027631   -1.322774
O      9.707319   -2.142595   -0.214251
O     -3.482515   -4.029508    2.313669
O     -8.113404    2.184129   -1.862239
O     -1.121813   -2.851045    2.658821
O     -6.698827   -1.949673   -0.039204
O     -8.601687   -0.459628   -1.090791
O     -0.598526   -0.286743    1.552403
H      5.131176    3.217066    1.200016
H      4.741202    1.658528    1.982555
H      3.419179    2.510323    1.159143
H     -4.267256    3.840627    2.170965
H     -3.440386    2.274149    2.286014
H     -5.179534    2.353058    1.722783
H     11.398750    2.079332   -1.342154
H     11.143209    1.276381   -2.926372
H     12.625406    0.882108   -2.024343
H      8.513615   -3.857131   -0.384230
H      8.527964   -3.061245    1.263348
H      9.952872   -4.023191    0.639622
H     -4.970454   -4.788640    1.035482
H     -5.575345   -3.979049    2.491750
H     -4.841676   -5.580247    2.679367
H     -7.429180    1.958321   -3.827325
H     -8.635649    3.271209   -3.509236
H     -9.208266    1.586327   -3.514863
H     -0.901774   -4.801527    2.080253
H      0.573426   -3.972570    2.704429
H      0.026059   -3.586435    1.052331
H     -7.359925   -2.693318   -1.900473
H     -5.642403   -2.956612   -1.474637
H     -6.865075   -3.915516   -0.597469
H     -9.074999   -0.005059    0.911888
H    -10.329091    0.428648   -0.266768
H    -10.035536   -1.320056    0.197782
H      3.569008   -1.889682    1.827440
H      2.666222    0.560143   -1.499314
H      1.302630   -1.621529    2.651271
H      0.387642    0.855336   -0.719175
H      7.202164    3.046665   -1.917673
H      6.934184    3.247803   -0.106480
H     -6.382052    3.990067   -1.611679
H     -4.829044    3.336121   -2.336341
H      5.154477    1.795509   -2.122525
H      4.832288    3.264896   -1.187336
H     -5.440229    4.365416    0.453329
H     -4.157857    4.819920   -0.694254
H      5.034235   -1.810314   -0.038861
H      4.715707   -0.826300   -1.507864
H      9.372226    2.113978   -1.577927
H     -1.837742    1.581679    0.780865
H     -1.814598    0.783528   -0.871546
H      7.164838   -1.764431    0.417954
H     -5.197675   -2.674592    0.969794
H      5.390843    0.135993    1.327012
H     -3.335378    2.238082   -1.486377
