38

C     -2.707405   -2.817209    0.231826
C     -4.839893    0.752790   -0.263636
C     -4.229685    1.972915   -0.434386
C     -4.071513   -0.378660   -0.106691
C     -2.828975    2.032014   -0.444088
C     -0.013642    2.122941   -0.459670
C      1.386362    2.136318   -0.462768
C     -0.612931   -1.434212    0.036899
C     -1.985093   -1.516018    0.049718
C     -2.692388   -0.332781   -0.114528
C     -2.071044    0.896140   -0.286515
C     -0.688496    0.936730   -0.293598
C      2.111199    0.987935   -0.303204
C      0.028394   -0.220786   -0.132945
C      1.433003   -0.204468   -0.136646
C      3.592661    0.896779   -0.281401
C      3.885501    0.097939    0.999647
C      2.207914   -1.435498    0.023728
C      3.507560   -1.308929    0.763776
O      4.103955    0.157798   -1.334463
O      3.143572    0.708770    2.018228
O      2.372657   -1.877073    1.334501
H     -1.974630   -3.642000    0.112664
H     -3.455675   -2.973486   -0.599073
H     -3.159822   -2.911876    1.224734
H     -5.926768    0.671136   -0.251114
H     -4.768215    2.899452   -0.563000
H     -4.526646   -1.355469    0.029987
H     -2.345416    2.981609   -0.576988
H     -0.494751    3.073061   -0.591788
H      1.931885    3.059554   -0.592043
H     -0.042100   -2.340779    0.162714
H      4.025644    1.904111   -0.223765
H      4.950975    0.176482    1.272987
H      2.239862   -2.177685   -0.800197
H      4.352495   -1.983115    0.498426
H      5.051016    0.409116   -1.461386
H      3.110433    0.036456    2.756109
