99

C      4.934329   -4.092628   -2.124069
C     -3.060027    1.938395   -4.028163
C      8.529305    3.363343   -0.427483
C      7.796302   -0.219114    3.647275
C     -3.727813    1.172641    5.056235
C     -8.317589   -1.556385   -2.613410
C      0.251271    3.017096    3.452192
C     -6.041047   -1.225617    2.775994
C     -9.075543    0.739966    0.856769
C      2.158694   -1.730756   -0.445528
C      3.205322   -0.598260    1.308375
C      1.145801   -0.771141   -0.462612
C      2.216299    0.356891    1.306626
C      5.803717   -0.557057   -2.612415
C     -5.607834    0.294560   -3.428239
C      5.948799   -2.060006   -2.755797
C     -4.202254   -0.155827   -3.786950
C      4.263665   -2.669536    0.475000
C      7.041978    0.908858   -1.013802
C     -2.053933    0.509505   -1.118260
C      6.675311   -0.878195    1.016069
C     -3.493813    0.821899    2.345021
C      3.205685   -1.660368    0.440679
C      6.349534   -0.257323   -1.244751
C      1.154072    0.290608    0.412733
C     -5.655834    0.274948   -1.940465
C      6.153292   -1.177835   -0.224009
C     -3.407931    0.638114    0.985814
C     -2.177688    0.785296    0.332630
C      5.415902   -2.439737   -0.450374
C     -3.261868    0.948221   -1.840193
C      7.566788    1.203159    0.246131
C      7.374168    0.290077    1.264902
C     -2.347817    1.156910    3.069991
C     -4.527699    0.530353   -1.188347
C     -4.636712    0.485291    0.189765
C     -6.863714   -0.013979   -1.346279
C     -1.048877    1.121834    1.074829
C     -1.141515    1.304683    2.433897
C     -5.814469    0.199395    0.816729
C     -6.943208   -0.050713    0.024978
N      5.066277   -2.680734   -1.827461
N     -3.211452    0.720141   -3.254343
O      8.263518    2.361288    0.506152
O      7.898722    0.590005    2.512490
O     -2.478529    1.330281    4.432090
O     -7.967835   -0.260031   -2.147255
O     -0.034925    1.647284    3.240345
O     -6.062805    0.100717    2.166045
O     -8.182258   -0.344344    0.574586
O      0.164679    1.267695    0.426572
H      3.894081   -4.417977   -2.145047
H      5.558968   -4.710266   -1.412624
H      5.376188   -4.277277   -3.124452
H     -3.148132    2.790015   -3.314887
H     -3.904941    2.043070   -4.731889
H     -2.067437    2.031986   -4.508386
H      9.415702    3.149253   -1.077051
H      7.667637    3.498718   -1.124705
H      8.660643    4.354991    0.087786
H      8.665003   -0.903868    3.788854
H      7.823095    0.482505    4.532007
H      6.872283   -0.812021    3.721932
H     -3.652078    1.414924    6.149762
H     -4.149765    0.152764    4.922546
H     -4.500108    1.868711    4.657226
H     -7.413572   -2.214153   -2.590978
H     -8.537316   -1.416801   -3.712432
H     -9.171323   -1.989752   -2.083832
H      1.253373    3.042014    3.950951
H     -0.449404    3.482759    4.171874
H      0.343971    3.549521    2.507848
H     -5.933606   -1.140027    3.871169
H     -5.110073   -1.688324    2.388635
H     -6.885642   -1.821935    2.436725
H    -10.035107    0.360981    1.251181
H     -8.575318    1.439787    1.576800
H     -9.186858    1.307381   -0.094244
H      2.068695   -2.532762   -1.172243
H      4.020240   -0.486580    2.049441
H      0.357481   -0.884047   -1.191240
H      2.253848    1.191560    1.996754
H      6.388294   -0.073258   -3.407288
H      4.777273   -0.200228   -2.662563
H     -5.798961    1.297241   -3.806020
H     -6.310196   -0.416478   -3.862909
H      7.001925   -2.288899   -2.421142
H      5.811796   -2.430458   -3.777401
H     -4.131441   -0.112837   -4.891707
H     -4.025556   -1.190180   -3.473455
H      4.608893   -2.802101    1.541466
H      3.858385   -3.690978    0.213443
H      7.188255    1.620207   -1.819923
H     -1.990050   -0.604275   -1.223998
H     -1.154754    1.009377   -1.528872
H      6.554397   -1.560067    1.855905
H     -4.399027    0.770398    2.880823
H      6.163057   -3.257383   -0.202261
H     -3.291261    2.094904   -1.744824
