58

C     -3.724512    1.947222    0.027349
C     -2.960884    3.540597   -1.619629
C      4.118706    2.317457   -0.116101
C      3.801354    0.427099   -1.739455
C      3.468150   -1.386845    0.521849
C      2.208143   -1.540452   -0.298344
C     -1.517316    1.557750   -1.296805
C      2.726850    0.795483    1.507161
C      0.351814   -0.111319   -1.266645
C     -4.381680   -3.004848    0.106731
C     -0.101246   -3.012726    2.598197
C     -2.519425    2.418073   -0.632827
C     -0.867428    0.554240   -0.507678
C      3.838471    0.038707    0.781457
C     -3.081482   -2.419635    0.414148
C     -1.021255   -2.414989    1.603082
C      2.093362    0.926690    0.108214
C     -1.488321   -0.657332    0.002095
C     -2.262657   -3.008823    1.339037
C     -2.692070   -1.240949   -0.258159
C     -0.649962   -1.280044    0.952080
C      3.494248    0.948690   -0.407142
C      1.354037   -0.343765   -0.112999
O     -4.837886   -4.030268    0.624457
O     -0.478052   -4.052414    3.180059
O     -2.539358   -4.129593    2.036697
O     -3.529392   -0.692487   -1.186852
O      0.581862   -0.598333    1.111236
H     -4.142438    2.849540    0.612295
H     -3.639567    1.183026    0.809449
H     -4.547699    1.733634   -0.694428
H     -3.622086    3.136891   -2.389689
H     -2.043633    4.020162   -1.997523
H     -3.505290    4.265265   -1.003652
H      3.402586    3.022936    0.303702
H      5.048633    2.193253    0.472909
H      4.445079    2.740644   -1.107284
H      4.418580   -0.512852   -1.624187
H      2.980897    0.269138   -2.432217
H      4.512797    1.137945   -2.257805
H      4.329991   -1.885106    0.060600
H      3.345672   -1.875065    1.533256
H      1.688340   -2.454468    0.119458
H      2.410564   -1.798653   -1.357383
H     -1.917794    1.243977   -2.297583
H     -0.691795    2.285597   -1.625274
H      3.140101    1.756763    1.882581
H      2.145512    0.199644    2.209565
H      0.045044   -1.061709   -1.659808
H      0.666225    0.670374   -1.949657
H     -5.019376   -2.532163   -0.623454
H      0.843752   -2.544382    2.786655
H     -1.917544    3.047989    0.131832
H     -0.367382    1.083321    0.333111
H      4.836133    0.155950    1.183841
H      1.497526    1.830883   -0.015403
H     -3.333391   -4.690179    2.006328
H     -4.393507   -1.019544   -1.459012
