58

C     -4.033077   -3.115798    0.364616
C     -1.695049   -3.695632    0.349916
C      2.870548   -1.457340    1.776395
C      3.864657    0.787008    1.747869
C      3.190487   -1.478621   -1.253087
C      1.827395   -1.067722   -1.736121
C     -2.482427   -1.287601    0.156468
C      3.110104    0.950706   -0.673070
C      0.037731   -1.151110    0.014540
C     -3.512616    3.812919    1.098633
C      0.138104    3.479516   -2.124302
C     -2.639215   -2.612787    0.813867
C     -1.221105   -0.506580    0.436920
C      3.755874   -0.421284   -0.381165
C     -2.493568    3.039893    0.434504
C     -0.701835    2.849638   -1.130150
C      1.977142    0.435415    0.253487
C     -1.372929    0.918076    0.137232
C     -1.688403    3.638809   -0.502383
C     -2.339348    1.701261    0.750263
C     -0.582548    1.529098   -0.787096
C      3.058567   -0.263345    0.952300
C      1.068677   -0.282015   -0.663469
O     -3.718891    5.028066    0.872424
O      1.018604    2.816451   -2.705151
O     -1.760427    4.957224   -0.887175
O     -3.129027    1.093228    1.678844
O      0.392076    0.757104   -1.399424
H     -3.895529   -3.524796   -0.645542
H     -4.753749   -2.284498    0.330774
H     -4.303013   -3.927400    1.052052
H     -2.120914   -4.693010    0.719635
H     -1.613305   -3.741291   -0.758444
H     -0.680615   -3.596099    0.760897
H      2.764017   -2.429982    1.263803
H      2.124895   -1.273066    2.577329
H      3.828730   -1.614025    2.376667
H      4.866227    0.944605    1.339729
H      3.361570    1.749799    1.808416
H      4.018003    0.452333    2.806922
H      3.873269   -1.604786   -2.119331
H      3.115554   -2.475807   -0.778269
H      1.274450   -1.984267   -2.028125
H      1.971018   -0.485908   -2.668439
H     -2.455833   -1.536346   -0.965337
H     -3.393136   -0.657081    0.249223
H      2.832298    1.086459   -1.712010
H      3.674298    1.777187   -0.204692
H     -0.257217   -1.883828   -0.799785
H      0.574670   -1.655911    0.839724
H     -4.143514    3.326180    1.838641
H      0.010684    4.511592   -2.366563
H     -2.586357   -2.583769    1.915382
H     -1.175188   -0.517952    1.595481
H      4.843401   -0.283185   -0.371593
H      1.482691    1.283617    0.777437
H     -2.313021    5.702715   -0.639220
H     -3.863883    1.463940    2.223595
