75

C      4.955286   -0.535942   -4.529480
C      5.084815    1.451362    4.129891
C     -2.239050    5.980082   -3.321392
C      4.837418   -1.037982   -3.089410
C      4.552301    1.929984    2.778372
C      3.884049   -0.179329   -2.295798
C      3.990461    0.745854    2.025931
C     -1.372710    2.085221   -2.127102
C     -2.271111    2.510395    0.017615
C     -3.958610   -2.016919    2.179406
C     -1.675287    3.380125   -2.484551
C     -2.564562    3.797019   -0.358362
C     -4.848524   -2.830398    2.871700
C      3.817447   -0.728286   -0.886217
C      3.456570    1.177644    0.686056
C     -2.948096   -3.910761    1.216483
C     -1.074416   -0.994255    1.538703
C      0.637021    0.578428    0.832387
C     -5.182388   -6.421474    2.698353
C     -1.673196    1.635784   -0.854865
C     -3.001651   -2.543245    1.347055
C     -2.275797    4.284037   -1.631750
C     -2.047227   -1.717702    0.615573
C     -4.790629   -4.208189    2.737594
C     -3.836490   -4.741393    1.907235
C      1.533530   -0.244335    0.045051
C     -2.654019   -0.543121   -0.117740
C     -1.372073    0.253639   -0.416454
C     -3.351599   -0.937831   -1.346947
N      2.907223    0.061056   -0.061325
N     -0.728360    0.208769    0.872121
O      1.107884   -1.251483   -0.567179
O     -3.442238   -2.121292   -1.757927
O     -3.955704    0.052792   -2.115954
O     -2.576050    5.589548   -2.004127
O     -5.561538   -5.212019    3.319951
O     -4.001596   -6.120386    1.959168
H      4.198559   -1.035021   -5.165750
H      4.795566    0.558686   -4.589929
H      5.985291   -0.730632   -4.915227
H      4.314701    1.647194    4.899098
H      6.018687    1.990919    4.323962
H      5.230645    0.344895    4.050044
H     -2.649838    5.270019   -4.092892
H     -1.131889    5.883510   -3.395969
H     -2.528344    7.030283   -3.530964
H      5.875503   -0.991498   -2.674818
H      4.460049   -2.087095   -3.117605
H      5.314384    2.482783    2.208521
H      3.684935    2.624965    2.955401
H      4.238021    0.861182   -2.277462
H      2.896508   -0.232246   -2.775728
H      4.810050   -0.017223    1.903305
H      3.163787    0.330532    2.622944
H     -0.901378    1.399558   -2.816302
H     -2.508898    2.144934    1.030620
H     -4.001945   -0.941911    2.282502
H     -1.439987    3.746291   -3.492607
H     -3.034436    4.469387    0.338999
H     -5.608681   -2.423398    3.531157
H      4.811184   -0.690187   -0.438952
H      3.380330   -1.747188   -0.935625
H      2.655380    1.939166    0.916084
H      4.244504    1.711549    0.108318
H     -2.226073   -4.384655    0.583493
H     -0.239061   -1.632030    1.840344
H     -1.653696   -0.741039    2.460641
H      0.705558    1.627456    0.405641
H      0.965901    0.735467    1.900795
H     -5.950335   -6.830766    2.016931
H     -4.932435   -7.147738    3.526021
H     -1.422039   -2.279316   -0.101093
H     -3.284676    0.077689    0.543954
H     -0.868164   -0.298073   -1.206930
H     -4.728755   -0.091843   -2.732985
