46

C     -4.805972   -1.081620    1.166589
C     -6.756846    0.454424    0.905995
C      0.692606   -2.802665   -0.513814
C      7.836227    1.111949    0.265979
C      3.142708    1.700168   -0.165895
C      1.834066    1.342839   -0.162400
C      3.786759   -0.561283   -0.400494
C     -3.213127    1.265438    0.003602
C     -0.855349    0.728634   -0.144157
C     -5.239589    0.352516    1.020505
C      2.087919   -2.325119   -0.514678
C      6.444364    0.562059    0.337960
C      4.161881    0.752721   -0.285830
C     -2.278908    0.122721   -0.171733
C      2.439585   -0.915924   -0.395549
C      1.445883    0.009139   -0.278721
N     -4.592208    1.040417   -0.021849
N      5.511598    1.181022   -0.284077
O      3.004716   -3.207705   -0.626048
O      6.118182   -0.582873    1.044320
O     -2.446690   -0.541459   -1.385582
O      0.097238   -0.305074   -0.270597
H     -4.448624   -1.442036    0.201985
H     -5.729281   -1.647540    1.492173
H     -4.104686   -1.159310    2.011675
H     -7.182962    0.757929    1.863246
H     -7.058628    1.151515    0.081841
H     -7.179970   -0.551327    0.638331
H      0.109059   -2.360249   -1.359713
H      0.656235   -3.919687   -0.632973
H      0.139366   -2.523936    0.415467
H      7.919759    1.734375   -0.629384
H      8.009107    1.700678    1.194873
H      8.519399    0.213112    0.214216
H      3.434912    2.737981   -0.075145
H      1.061184    2.109694   -0.068045
H      4.532978   -1.335518   -0.496901
H     -2.988330    2.085493   -0.739354
H     -2.966662    1.772539    0.995624
H     -0.728882    1.209957    0.856673
H     -0.779094    1.503476   -0.915292
H     -4.974602    0.881859    1.986760
H     -2.282696   -0.594435    0.651445
H     -5.158265    1.471190   -0.755507
H      5.284532   -0.569242    1.649041
H     -2.498891   -1.526845   -1.222113
