56

C     -1.643547    3.015725   -1.371857
C      6.746479   -3.040299   -0.087356
C      4.749617    1.248675    2.780940
C     -6.389769   -0.557968    2.139864
C     -4.229267   -2.765903   -2.437307
C      1.580439    0.685571   -1.147041
C      3.282374   -1.085593   -1.423373
C      0.327121    0.056496   -0.542750
C      4.421153   -1.698493   -0.949989
C     -2.009442    1.988977    1.344354
C     -0.720722    2.425682    0.728123
C      3.460014    0.395506    0.464393
C     -3.877144    0.413554    1.092518
C     -2.843569   -0.689838   -1.154222
C      2.802692   -0.016589   -0.689950
C     -2.670661    0.883141    0.593222
C     -2.140507    0.324133   -0.550759
C     -0.846661    0.841425   -1.069748
C      5.086507   -1.307171    0.188763
C      4.593949   -0.240049    0.906706
C     -4.576660   -0.604223    0.481357
C     -4.048127   -1.163696   -0.661819
N     -0.652315    2.227488   -0.689734
O      6.232672   -1.948790    0.636754
O      5.265194    0.164307    2.066646
O     -5.792706   -1.073225    0.989758
O     -4.762598   -2.188286   -1.267998
H     -2.070112    3.766626   -0.669355
H     -2.503005    2.414348   -1.729551
H     -1.127569    3.500640   -2.239272
H      7.001598   -2.693208   -1.118928
H      7.625905   -3.458058    0.444326
H      5.997756   -3.866635   -0.154062
H      4.610163    2.089327    2.049404
H      5.435057    1.602757    3.570983
H      3.766907    1.065055    3.230465
H     -5.963336   -0.984940    3.071198
H     -7.487252   -0.794444    2.089082
H     -6.327317    0.553308    2.208365
H     -4.856622   -3.643779   -2.684683
H     -3.215125   -3.148888   -2.200369
H     -4.159247   -2.043641   -3.275350
H      1.654096    1.768144   -0.850885
H      1.555947    0.658293   -2.242074
H      2.767359   -1.400182   -2.318337
H      0.407408    0.042342    0.545405
H      0.290865   -0.983051   -0.911590
H      4.820558   -2.540230   -1.504995
H     -2.721148    2.855130    1.304040
H     -1.894795    1.735076    2.417672
H      0.142925    1.944180    1.232893
H     -0.606892    3.526353    0.904751
H      3.054079    1.239775    1.015525
H     -4.319141    0.835043    1.992486
H     -2.429020   -1.126584   -2.048525
H     -0.794559    0.796684   -2.177194
