47

C     -5.381293   -0.812190    2.343396
C      7.214430   -0.990144    1.635671
C     -3.000755    2.103642   -3.087810
C     -1.857402    2.773102   -3.424395
C     -3.021334    1.170361   -2.047412
C     -0.686957    2.540883   -2.738627
C      2.570589    0.049238    1.246276
C      3.711304   -0.891813   -0.611879
C      3.716477    0.020192    1.990403
C      4.888581   -0.936946    0.109452
C     -3.863969    0.666348    1.205573
C     -3.433549   -0.285521    0.107844
C      2.573275   -0.409105   -0.057934
C      4.876872   -0.481404    1.398856
C     -1.887172    0.924604   -1.360204
C     -0.721175    1.625308   -1.723180
C      0.289924   -1.228577   -0.137309
C      1.245319   -0.324516   -0.773311
C     -1.016204   -0.760861    0.288609
N     -5.206806    0.439815    1.645191
N     -2.087746   -0.051623   -0.329934
O      0.918933   -1.921718    0.932999
O     -1.293477   -1.045193    1.513358
O      6.006719   -0.497103    2.169022
S      0.844075    1.402454   -0.890727
H     -5.505935   -1.668653    1.654565
H     -4.567666   -0.930712    3.072698
H     -6.324948   -0.732436    2.924050
H      7.418710   -0.644296    0.610764
H      8.089566   -0.647517    2.254984
H      7.213716   -2.101416    1.652877
H     -3.925573    2.274291   -3.615776
H     -1.881735    3.504313   -4.254195
H     -3.929321    0.675909   -1.813554
H      0.229065    3.032507   -2.957549
H      1.646660    0.442425    1.700148
H      3.682091   -1.244017   -1.636986
H      3.711041    0.378688    3.007011
H      5.778953   -1.334091   -0.375888
H     -3.204529    0.564940    2.095401
H     -3.778683    1.731546    0.899715
H     -3.342627   -1.268976    0.733641
H     -4.180086   -0.613278   -0.586740
H      0.089278   -2.083335   -0.864178
H      1.498605   -0.664443   -1.825294
H     -5.905904    0.529932    0.877727
H      1.790666   -2.280614    0.591631
