27

C     -1.226570   -1.558141   -0.579501
C     -3.488168    1.194559    0.398129
C      1.495006   -0.426116   -1.054168
C      1.351783    0.842065    0.948286
C      2.788802   -0.792921   -0.748695
C      2.644851    0.475831    1.254185
C     -0.634103    0.803958   -0.524175
C     -1.580289   -0.225957    0.085846
C      0.756632    0.388646   -0.224413
C      3.377483   -0.335900    0.425437
N     -2.924848    0.078983   -0.330378
O      4.681520   -0.690674    0.758369
H     -2.007802   -2.290192   -0.280703
H     -1.246912   -1.426122   -1.665097
H     -0.260040   -1.960095   -0.216664
H     -2.776457    2.041602    0.354209
H     -3.643533    0.855436    1.448586
H     -4.472081    1.422416   -0.019055
H      1.049050   -0.797863   -1.990523
H      0.786582    1.483716    1.610999
H      3.349470   -1.441757   -1.427575
H      3.129937    0.827532    2.174900
H     -0.809768    1.803117   -0.108111
H     -0.778695    0.825955   -1.625094
H     -1.454140   -0.256710    1.179728
H     -3.550547   -0.747926   -0.287109
H      5.442837   -0.093443    0.442585
