52

C      4.257292   -2.063883   -0.579682
C     -3.668220    1.061997    0.379325
C     -3.208789   -0.796850    1.829268
C      4.849896    0.707916    0.542750
C     -0.912950    1.171920   -1.717446
C      3.528948   -1.365556    0.265224
C      1.701450    0.616222   -1.547965
C     -2.407748   -1.495019   -1.718859
C      3.154051    0.575758   -1.238605
C     -0.965182   -1.237215   -1.530639
C     -1.194707    1.334529    1.278741
C      2.503276    0.726526    1.060534
C      1.193270    0.708356    0.793059
C      0.835607    0.009704   -0.470812
C      0.227601    1.329545    1.684583
C     -1.384822    0.039908    0.481970
C     -3.327038   -1.145418   -0.619137
C     -2.837963   -0.232562    0.438409
C      3.503310    0.094456    0.155973
C     -0.623850    0.034109   -0.785887
O      0.631089    1.833002    2.753440
O     -4.566636   -0.685455   -1.135448
H      4.833831   -1.583408   -1.348541
H      4.321544   -3.159851   -0.554062
H     -3.732451    1.520062    1.395850
H     -3.339447    1.754413   -0.383340
H     -4.710484    0.746005    0.140383
H     -4.123877   -1.409311    1.670482
H     -3.391571   -0.002000    2.549822
H     -2.383012   -1.430354    2.215568
H      4.661684    1.765718    0.823734
H      5.573975    0.659350   -0.285749
H      5.188659    0.193200    1.464431
H     -1.939066    1.006278   -2.165679
H     -0.247952    1.015323   -2.619997
H     -0.825331    2.163264   -1.285837
H      2.968611   -1.931676    1.022063
H      1.434534    1.696451   -1.711287
H      1.518821    0.019728   -2.467199
H     -2.742171   -0.898762   -2.622377
H     -2.532300   -2.552335   -2.036726
H      3.623708    1.600890   -1.325914
H      3.708244   -0.014458   -2.015613
H     -0.472476   -2.068227   -0.982013
H     -0.445733   -1.183624   -2.511195
H     -1.377360    2.226583    0.676490
H     -1.848565    1.279034    2.174488
H      2.781008    1.236423    1.985997
H      1.178535   -1.062976   -0.373569
H     -0.905826   -0.749280    1.137621
H     -3.629204   -2.119970   -0.124280
H     -4.434217    0.061522   -1.767800
