45

C      1.985302    1.419063   -1.561273
C      3.219314   -0.671715   -1.463619
C      1.371185    1.301014    2.291103
C     -1.158115    3.713092   -0.083958
C     -2.411017    3.225587   -0.380217
C     -0.147915    2.907552    0.365294
C     -1.460551   -1.404782    0.914262
C     -3.437176   -0.124334   -0.015764
C     -1.286892   -3.559380   -0.232213
C      1.884487   -0.023275   -1.159048
C     -2.098104   -0.183350    0.377675
C     -0.670795   -2.140889   -0.144691
C     -2.606027    1.861505   -0.196498
C     -0.306486    1.498790    0.561395
C     -1.573128    1.053263    0.260581
C      1.684460   -0.185185    0.359106
C      1.617303   -1.595085    0.591635
N     -3.744378    1.130591   -0.367236
N      0.635374   -2.325950    0.365032
N      0.866554    0.806622    0.963568
O     -2.581749   -3.475161   -0.727454
O      2.751030   -2.250031    1.126649
H      2.376947    2.053916   -0.770330
H      1.029181    1.757722   -2.010929
H      2.718562    1.474660   -2.407272
H      3.812133   -0.045022   -2.187260
H      3.113130   -1.666629   -1.924906
H      3.868865   -0.711203   -0.546220
H      2.481195    1.097991    2.364263
H      0.934083    0.761448    3.123444
H      1.296172    2.383566    2.374934
H     -1.005725    4.797005   -0.227780
H     -3.221587    3.843222   -0.738444
H      0.785332    3.413332    0.602358
H     -0.771476   -1.087641    1.764995
H     -2.166832   -2.092493    1.418839
H     -4.173252   -0.934543   -0.054935
H     -1.348541   -3.980707    0.789217
H     -0.701227   -4.167809   -0.934613
H      1.059063   -0.500656   -1.671111
H     -0.794250   -1.725427   -1.139356
H      2.764403    0.163227    0.682431
H     -4.639182    1.530786   -0.706590
H     -2.729542   -4.103947   -1.492252
H      2.779873   -3.238741    1.322634
