48

C      4.265523    1.940295    1.917070
C      5.300459    0.041959    0.729345
C     -2.213658    0.335592   -3.722432
C      2.222886    1.523433   -1.786344
C     -4.263378   -2.867551   -0.328543
C     -1.766121   -1.200641    3.112785
C     -1.098192   -1.430345    1.907988
C     -2.535583   -0.081033    3.284428
C      4.010676    0.595727    1.286354
C     -1.237165    0.159269   -2.599783
C      0.959271    0.741548   -1.631916
C     -1.192108   -0.541654    0.860610
C     -2.642301    0.808644    2.263466
C     -1.458556   -0.600168   -1.570456
C      0.745356   -0.030753   -0.575563
C     -0.497492   -0.792131   -0.436863
C     -1.979296    0.578291    1.071625
C     -2.749753   -1.326701   -1.506837
C      1.796912   -0.095129    0.452724
N     -0.007862    0.868805   -2.675078
N     -3.295449    1.976785    2.098743
N     -2.272640    1.605446    0.282834
O     -3.617027   -1.236611   -2.389974
O      1.646022   -0.819274    1.486841
O     -3.046317   -2.161992   -0.421688
O      2.968161    0.594717    0.371175
O     -3.059963    2.435246    0.906903
H      3.991838    2.789280    1.266462
H      3.774704    2.024034    2.922596
H      5.353854    2.024952    2.116707
H      5.315291   -1.067269    0.722292
H      5.449709    0.356676   -0.333329
H      6.170164    0.374257    1.329870
H     -2.338873   -0.675954   -4.209397
H     -1.704230    0.936818   -4.507499
H     -3.156797    0.780270   -3.391782
H      2.360911    2.300504   -1.031519
H      3.073369    0.820418   -1.904559
H      2.182858    2.060083   -2.779810
H     -4.113471   -3.963076   -0.196990
H     -4.923335   -2.683483   -1.185394
H     -4.777062   -2.506252    0.591693
H     -1.696725   -1.891688    3.936741
H     -0.528829   -2.343423    1.866782
H     -3.070264    0.129890    4.210464
H      3.712554   -0.090983    2.130577
H     -0.236143   -1.873561   -0.450623
H      0.178072    1.476734   -3.490696
