37

C      3.173133   -2.859206    0.488262
C      3.769597   -1.661086    0.189277
C      1.806961   -2.949960    0.595423
C      2.947375   -0.535337   -0.002128
C     -2.921731    1.427729    0.098674
C     -3.423602    0.097123   -0.414150
C     -0.449152   -2.034955    0.478580
C     -0.922149    2.752444   -0.443560
C     -3.102457   -2.306271   -0.102504
C      2.553352    3.653581   -0.552253
C      1.009008   -1.816170    0.399615
C     -1.450781    1.541186   -0.065706
C      1.583384   -0.603210    0.100833
C     -1.277029   -0.799886    0.617827
C      0.456079    2.853461   -0.614829
C     -0.633039    0.433191    0.144356
C      0.737374    0.579247   -0.041051
C      1.309887    1.773637   -0.418197
N     -2.586160   -1.000106    0.036834
O     -4.230158   -2.492772   -0.602360
O      1.231209    3.960956   -0.989171
O      2.577525    2.258029   -0.680677
H      3.781632   -3.750705    0.643358
H      4.839245   -1.545471    0.094898
H      1.345401   -3.893579    0.830486
H      3.453392    0.370001   -0.229656
H     -3.397631    2.211181   -0.523111
H     -3.172649    1.619341    1.151817
H     -4.446929   -0.058699   -0.016475
H     -3.453697    0.092145   -1.507712
H     -0.710683   -2.760765    1.262699
H     -0.772921   -2.511404   -0.499018
H     -1.542996    3.627242   -0.611425
H     -2.528254   -3.147099    0.221290
H      3.253423    4.155195   -1.265187
H      2.663719    3.994604    0.481765
H     -1.469678   -0.673613    1.743178
