36

C     -3.084880    1.733692    1.620364
C     -2.511920   -2.169581   -1.329153
C      2.977656    2.369151   -0.730333
C      1.613779    2.093426   -0.907678
C      3.835519    1.419242   -0.165291
C     -1.038125    1.328294    0.297586
C      0.274891   -1.748527    0.355323
C      2.799598   -1.850291    0.934405
C     -2.808378   -0.274473    0.104524
C     -2.232892    0.945130    0.645983
C      1.653186   -1.249794    0.449490
C      1.155525    0.861519   -0.507327
C     -0.260442    0.508182   -0.660374
C      3.353331    0.183807    0.231333
C     -0.578025   -0.946437   -0.598942
C      2.021857   -0.025319    0.033913
N      3.822990   -0.945734    0.786301
N     -1.933390   -1.269527   -0.352006
H     -3.585023    1.084076    2.336882
H     -3.813004    2.326278    1.006680
H     -2.409521    2.431157    2.144685
H     -3.566292   -1.888545   -1.532461
H     -2.525416   -3.180850   -0.882996
H     -1.911146   -2.153090   -2.260944
H      3.405240    3.315627   -1.021935
H      0.970509    2.842316   -1.346168
H      4.877403    1.624002   -0.027395
H     -0.610669    2.228769    0.693244
H      0.335247   -2.818730    0.061096
H     -0.136112   -1.752045    1.389715
H      2.958582   -2.829399    1.362928
H     -3.489643    0.019870   -0.748115
H     -3.495522   -0.720866    0.860876
H     -0.540484    0.927443   -1.679402
H     -0.348961   -1.349958   -1.612814
H      4.824536   -1.068815    1.048008
