86

C      8.464730    0.774659    3.447942
C     -9.228398   -0.326257    2.273598
C      8.732952    1.268178    2.189964
C      7.157327    0.413797    3.718218
C     -9.230532    0.634927    1.283020
C     -8.245000   -1.282840    2.216549
C      1.221598    3.854522    0.607277
C     -0.774196   -3.713485   -2.235740
C      1.589359    4.407245   -0.597356
C     -1.174517   -3.349324   -3.497041
C      7.755716    1.404418    1.228148
C      6.165095    0.538044    2.781972
C     -8.284891    0.643671    0.268937
C     -7.302993   -1.281283    1.213777
C      0.978218    2.508559    0.770548
C     -0.523319   -2.825997   -1.221215
C      1.715745    3.565184   -1.676958
C     -1.325017   -2.000881   -3.727019
C      5.436720    1.195077    0.471050
C     -6.258813   -0.360065   -0.848011
C      1.592727   -0.662065    0.526381
C     -1.169867   -0.269931    0.682275
C      6.451430    1.027955    1.544851
C     -7.299716   -0.319958    0.217253
C      1.101285    1.644598   -0.312571
C     -0.675340   -1.475876   -1.457448
C      1.473343    2.203905   -1.526601
C     -1.076560   -1.087205   -2.714775
C      5.337610   -0.065510   -0.376653
C     -5.089793    0.483151   -0.321062
C      2.717496   -1.311580   -0.241502
C     -2.433513    0.583205    0.581110
C      3.863588   -1.668751    0.564968
C     -3.488715   -0.088549    1.336437
C      4.326009    0.102861   -1.445866
C     -3.975072    0.526643   -1.293985
C      1.695308   -0.039516   -1.804299
C     -1.335568    0.771204   -1.415803
C      0.917501    0.212347   -0.501153
C     -0.505685   -0.244705   -0.659920
N      4.994527   -1.133311    0.508798
N     -4.686751   -0.129336    0.922281
N      1.575696    1.190429   -2.525223
N     -1.189488    0.345729   -2.763861
N      2.989675   -0.317631   -1.255924
N     -2.637710    0.625073   -0.840773
O      3.689611   -2.712478    1.496090
O     -3.099121   -0.688259    2.551019
O      4.676019    0.638751   -2.556019
O     -4.215660    0.476616   -2.508205
H      9.265880    0.687794    4.165141
H     -9.967192   -0.342801    3.075848
H      9.755199    1.569108    1.924825
H      6.943946    0.020292    4.721598
H    -10.005392    1.401082    1.315239
H     -8.247567   -2.033433    2.994754
H      1.116697    4.505048    1.473168
H     -0.657310   -4.776483   -2.059598
H      1.768310    5.479548   -0.665642
H     -1.363324   -4.056159   -4.268839
H      7.982874    1.794352    0.243301
H      5.165615    0.248150    3.028659
H     -8.285367    1.395878   -0.507489
H     -6.543494   -2.055092    1.205706
H      0.698924    2.083079    1.714399
H     -0.210509   -3.151060   -0.230460
H      2.002479    3.977506   -2.630588
H     -1.640396   -1.678853   -4.715294
H      4.457195    1.487723    0.872644
H      5.752006    2.013134   -0.224519
H     -6.649737    0.031183   -1.797526
H     -5.882792   -1.392244   -0.902725
H      0.956888   -1.469244    0.924722
H      1.984042   -0.035654    1.368418
H     -0.577209    0.164440    1.504749
H     -1.481750   -1.317313    0.939803
H      6.312260   -0.305817   -0.850543
H     -5.425054    1.535452   -0.181754
H      2.260007   -2.169325   -0.788482
H     -2.261104    1.595951    1.001966
H      1.348442   -0.925892   -2.330911
H     -0.998073    1.808670   -1.226255
H      1.568787    1.284948   -3.553844
H     -1.172153    0.972573   -3.592901
H      4.479023   -3.254364    1.844141
H     -3.843198   -1.095546    3.130809
