57

C      1.916467   -2.307567   -0.865503
C      4.552293   -0.873646    0.504849
C     -3.159752   -4.203023    0.844102
C     -4.119099   -0.792117   -2.255676
C     -1.324247    1.674266   -2.324434
C     -1.970520    1.347161    2.247476
C      1.122436   -2.011645    1.407320
C      2.845170    0.277330   -0.755288
C     -1.109463   -2.335500    0.799516
C      2.201402    2.506951   -0.426633
C      0.449769    5.520672    0.540514
C      2.337245   -1.867656    0.545571
C      3.042391   -0.610352    0.452032
C     -0.097382   -1.441483    0.792820
C      1.769107    1.231511   -0.366122
C     -2.345360   -2.029893    0.229422
C      1.372740    3.544448   -0.062379
C     -0.344370   -0.201488    0.192514
C      0.461661    1.009619    0.074649
C     -2.544256   -0.773813   -0.365643
C      0.062713    3.293295    0.381975
C     -1.532678    0.158108   -0.391299
C     -0.410826    2.004075    0.458697
O     -3.384424   -2.948193    0.240240
O     -3.788554   -0.512162   -0.921145
O     -1.617293    1.405710   -0.971003
O     -1.659454    1.621258    0.897439
O      1.589020    4.906456   -0.043902
O     -0.525414    4.512251    0.674699
H      2.788782   -2.306296   -1.548675
H      1.627122   -3.379992   -0.750920
H      1.091854   -1.667706   -1.170735
H      4.890787   -1.095670   -0.535185
H      5.019126    0.097158    0.768820
H      4.790751   -1.682744    1.216197
H     -2.243774   -4.679981    0.420992
H     -4.014301   -4.880511    0.769258
H     -2.930185   -4.069732    1.940561
H     -4.032451    0.115416   -2.917115
H     -3.505604   -1.573250   -2.720301
H     -5.189441   -1.100050   -2.346082
H     -0.966845    0.759470   -2.843051
H     -2.177034    2.159154   -2.846778
H     -0.498556    2.408556   -2.357891
H     -1.294764    2.012989    2.858309
H     -1.653368    0.327834    2.476148
H     -3.026641    1.472906    2.485262
H      1.309858   -1.457124    2.342597
H      0.981144   -3.078164    1.684185
H      2.514661   -0.287470   -1.649897
H      3.745306    0.879896   -0.975733
H     -0.922834   -3.304469    1.267477
H      3.220683    2.671985   -0.771913
H      0.665684    5.900384    1.560340
H      0.131723    6.327823   -0.155284
H      3.040834   -2.671157    0.877205
H      2.848163   -0.003824    1.387398
