68

C     -3.779454   -0.436278    2.833044
C      2.835695    0.371943    2.464122
C      4.480634   -0.783023    1.105846
C      0.548497    1.144658    0.656311
C     -1.284897   -2.927930   -0.020390
C     -2.697693    2.077074   -3.104611
C      5.493601    1.669107   -1.604504
C      1.281822    0.774372   -1.617145
C      2.679208    1.230341   -1.886492
C     -1.189306   -0.385065   -1.384507
C      0.614685   -2.276121    1.352066
C     -6.063299    1.027936    1.213851
C     -3.687490   -0.070390    1.398386
C     -2.408075   -0.062980   -0.616438
C     -4.727592    0.567866    0.762327
C     -0.048865   -0.931120   -0.601873
C      1.930745   -2.084968    0.659790
C     -4.590883    0.886913   -0.576307
C     -2.506490   -0.393760    0.704262
C     -3.449111    0.585440   -1.286877
C     -5.821593    1.554124   -1.020688
C      3.179159    0.047867    1.097185
C      1.049656    0.070737   -0.298962
C     -0.520843   -1.727435    0.566559
C      3.613182    0.485264   -0.968665
C      2.217211   -0.690833    0.221934
O      2.899319   -2.640106    1.454970
O     -6.077825    1.996017   -2.182829
O     -3.259561    0.880426   -2.622608
O      4.906850    0.422408   -1.429204
O     -6.655458    1.609909    0.076693
O     -1.468125   -1.034607    1.353351
O      3.493598    1.117882    0.258618
O      3.107982   -0.804020   -0.885358
H     -4.625686    0.109697    3.295655
H     -2.876977   -0.150358    3.405476
H     -3.990454   -1.529559    2.958456
H      1.863697    0.106609    2.868337
H      2.939672    1.489372    2.619852
H      3.579942   -0.039786    3.214431
H      4.527342   -1.475990    0.260239
H      5.375016   -0.101592    0.976393
H      4.646726   -1.244084    2.101669
H     -0.211384    1.726466    0.050691
H      0.010706    0.766003    1.518046
H      1.356912    1.849123    0.855928
H     -0.579293   -3.752042   -0.283290
H     -1.818199   -2.659358   -0.939818
H     -2.008394   -3.331317    0.704702
H     -2.261628    2.704072   -2.306567
H     -1.944896    1.787907   -3.869122
H     -3.510689    2.606686   -3.659088
H      6.530891    1.483508   -1.977542
H      5.601669    2.223936   -0.648938
H      4.991040    2.308848   -2.329078
H      0.968153    0.172712   -2.495991
H      0.663660    1.721242   -1.683860
H      2.839939    2.312812   -1.703620
H      3.018503    1.021797   -2.935766
H     -1.515312   -1.097117   -2.209278
H     -0.949625    0.547586   -1.951223
H      0.572421   -1.845826    2.371893
H      0.516403   -3.391096    1.518879
H     -6.000856    1.802791    2.004690
H     -6.711907    0.188379    1.545841
H      0.458978   -1.682270   -1.284476
H      1.883769   -2.726031   -0.269906
H      2.564574   -3.174762    2.204526
