59

C     -8.264471    2.106161    0.773479
C     -7.124376    1.138943    1.014136
C     -6.112394    1.183135   -0.138522
C      4.624903   -0.254228    0.768019
C      4.791264    0.705049   -0.367182
C      3.557340   -1.277590    0.516053
C      5.861265    1.714527   -0.093307
C      2.213307   -0.671316    0.297468
C      7.224240    1.095526    0.138814
C     -0.896857   -0.691272    1.138362
C     -5.031944    0.189801    0.207474
C     -2.361083   -0.517122    0.946358
C     -0.048420   -2.316024   -2.022720
C      1.129115   -1.701478    0.043678
C     -0.142761   -0.913225   -0.148188
C      1.268987   -2.363085   -1.282692
C     -0.988397   -1.889307   -0.954532
C      8.174786    2.225260    0.394944
C     -3.958509    0.111082   -0.828722
C     -2.936558   -0.927162   -0.348746
F     -3.306266    1.319881   -0.968251
F     -4.460694   -0.239351   -2.058250
O      2.279975   -2.885480   -1.754892
O      8.140090    2.782151    1.512245
O      9.048070    2.601576   -0.615709
O     -3.626535   -2.145802   -0.133244
O     -2.079477   -1.152270   -1.390468
H     -8.959288    1.597257    0.059817
H     -8.816197    2.177615    1.741215
H     -7.927608    3.076405    0.407185
H     -7.466485    0.096099    1.065782
H     -6.556422    1.361684    1.935247
H     -5.644567    2.207564   -0.202000
H     -6.565899    0.965649   -1.105173
H      4.421590    0.319927    1.699739
H      5.583351   -0.808403    0.896495
H      3.860948    1.263182   -0.570009
H      5.128514    0.114010   -1.262745
H      3.520466   -1.943876    1.409482
H      3.849677   -1.838924   -0.397691
H      5.967829    2.327584   -1.034209
H      5.613080    2.414409    0.722359
H      2.215760    0.070806   -0.526495
H      1.900579   -0.123773    1.220304
H      7.190407    0.435903    1.030053
H      7.541350    0.509900   -0.739955
H     -0.401300    0.130194    1.691396
H     -0.712850   -1.613600    1.764143
H     -4.593105    0.380621    1.186583
H     -5.529709   -0.824101    0.230272
H     -2.895266   -1.013619    1.809721
H     -2.571921    0.583762    1.093477
H     -0.284036   -3.375134   -2.301047
H     -0.018447   -1.645170   -2.880060
H      1.051071   -2.418203    0.874381
H      0.060029   -0.000094   -0.707166
H     -1.358484   -2.686614   -0.313503
H      9.776978    3.273350   -0.432484
H     -4.354645   -2.242792   -0.802916
