36

C      2.988467   -2.392264   -0.169398
C     -2.939446   -0.844215    0.010449
C     -1.301254   -0.300406    1.611197
C     -0.713947   -1.613834   -0.284129
C      3.218168   -0.933943   -0.433745
C      0.139142    2.624804   -1.038989
C     -1.289636    0.675318   -0.586636
C      0.059287    1.272000   -0.427770
C     -0.757211    3.645353   -0.484042
C      2.114999   -0.054570    0.003607
N     -1.512202   -0.534473    0.203828
O     -1.510600    3.434098    0.487374
O     -0.788615    4.909066   -1.046886
O      2.085830    0.271528    1.224789
O      1.128783    0.432581   -0.799253
Cl     0.687353    0.000000    0.000000
H      2.415422   -2.887992   -0.995831
H      2.580080   -2.622652    0.824597
H      4.003987   -2.883279   -0.215670
H     -3.200124   -1.787762    0.544540
H     -3.168161   -0.984559   -1.046467
H     -3.575491   -0.030702    0.394473
H     -1.377472    0.786450    1.883492
H     -2.108026   -0.846129    2.176837
H     -0.357402   -0.734471    1.956104
H     -0.016040   -1.926602    0.544626
H     -1.394178   -2.490623   -0.471154
H     -0.199559   -1.434994   -1.230666
H      4.188399   -0.658166    0.074447
H      3.446014   -0.834144   -1.522948
H      1.221656    2.947196   -0.945432
H      0.013113    2.552904   -2.164665
H     -2.059843    1.384478   -0.242530
H     -1.540811    0.424064   -1.643366
H      0.206672    1.435939    0.685251
H     -0.687353    0.000000    0.000000
