59

C     -7.400010    2.864332   -0.272032
C     -6.034202    2.184576   -0.106075
C     -6.262385    0.727880   -0.332810
C      4.403327   -0.568120   -0.466579
C      4.515531    0.742414    0.218575
C      2.963057   -1.037806   -0.698513
C      5.976527    1.084799    0.384441
C      2.297812   -1.172823    0.599966
C      6.708815    1.191458   -0.914711
C     -0.419932   -1.242726   -1.465263
C     -5.061442   -0.144161   -0.216983
C     -1.724088   -0.525962   -1.842845
C     -1.027895   -1.601296    2.104199
C      0.897429   -1.647321    0.661978
C     -0.159660   -0.892252   -0.015656
C      0.445658   -1.692186    2.078940
C     -1.411102   -1.457790    0.683439
C      8.129333    1.548689   -0.609005
C     -3.952108    0.178118   -1.182253
C     -2.838872   -0.819901   -0.901127
F     -3.387980    1.427156   -0.942512
F     -4.363270    0.090505   -2.493650
O      1.173111   -1.787298    3.039933
O      8.901623    1.681358   -1.598666
O      8.616153    1.732845    0.655131
O     -3.311972   -2.090683   -1.110863
O     -2.466203   -0.595529    0.445020
H     -7.721962    2.856103   -1.323460
H     -8.116959    2.237661    0.302361
H     -7.387693    3.868649    0.175845
H     -5.699078    2.409117    0.917401
H     -5.307931    2.641781   -0.811862
H     -6.769158    0.502154   -1.279701
H     -6.976517    0.384595    0.471238
H      4.970346   -1.319706    0.118208
H      4.938264   -0.484259   -1.441005
H      4.094273    1.520215   -0.458030
H      4.030229    0.799222    1.223446
H      2.465131   -0.350708   -1.416882
H      3.060935   -2.043908   -1.174018
H      6.079089    2.066728    0.894844
H      6.488547    0.289513    0.983748
H      2.307568   -0.162232    1.111527
H      2.910246   -1.821618    1.258245
H      6.781304    0.238831   -1.488709
H      6.280080    2.012928   -1.514383
H     -0.608694   -2.334610   -1.501430
H      0.315403   -0.891300   -2.176563
H     -4.636477   -0.144994    0.813366
H     -5.381349   -1.189779   -0.406701
H     -1.471206    0.567151   -1.773471
H     -2.023346   -0.808711   -2.850835
H     -1.410657   -0.816283    2.780665
H     -1.408277   -2.588839    2.490003
H      0.840272   -2.717379    0.302064
H     -0.176784    0.187279    0.153199
H     -1.628584   -2.445989    0.228932
H      9.592900    1.899115    0.823418
H     -3.637169   -2.539000   -0.283305
