36

C      3.974184   -1.990529   -0.364837
C     -3.057370   -0.213942   -0.673798
C     -1.006707   -1.416937   -0.347787
C     -2.362885   -0.851204    1.434260
C      3.048225   -1.394200    0.659210
C      0.573726    2.484523    0.477878
C     -1.228545    0.905695    0.334284
C      0.206060    1.061183   -0.030320
C     -0.232330    3.519828   -0.169779
C      2.091342   -0.482566   -0.025986
N     -1.836617   -0.354938    0.142568
O     -0.244086    3.562897   -1.440230
O     -0.956831    4.417412    0.567577
O      2.142162   -0.301606   -1.279448
O      1.096952    0.213334    0.657906
Cl     0.691181    0.000000    0.000000
H      5.024770   -1.884892   -0.039396
H      3.693161   -3.056452   -0.561586
H      3.887981   -1.462002   -1.346198
H     -3.852965    0.249816   -0.063727
H     -2.886888    0.415780   -1.554082
H     -3.451462   -1.233226   -0.926442
H     -0.443739   -1.176644   -1.248382
H     -1.712908   -2.263134   -0.592464
H     -0.414654   -1.787743    0.509790
H     -1.543233   -1.016772    2.144274
H     -2.926491   -1.768924    1.162025
H     -3.124472   -0.104566    1.781913
H      3.651050   -0.874534    1.424160
H      2.492754   -2.221053    1.178925
H      0.462434    2.443027    1.572737
H      1.683751    2.595332    0.292198
H     -1.788038    1.693135   -0.255348
H     -1.342948    1.220013    1.397957
H      0.384618    1.073889   -1.135274
H     -0.691181    0.000000    0.000000
