38

C     -2.197754   -1.581021   -1.007113
C     -1.955695   -0.967417    1.346329
C      0.265880    1.141229    1.554985
C     -1.497403    2.002426   -0.482699
C      1.826410   -1.877583   -0.473028
C      0.538187   -1.658686    0.325107
C     -2.312411    0.780966   -0.379427
C     -0.056390    1.832477   -0.780535
C      3.957779   -0.367067   -0.450903
C      2.998509    1.526745   -0.023331
C      2.601386   -0.601989   -0.341427
C      1.983953    0.594186   -0.070082
C     -0.161916   -0.506081   -0.294081
C     -1.636879   -0.492566   -0.074053
C      0.536259    0.770934    0.119588
O      4.134329    0.917325   -0.252032
H     -2.103316   -2.561264   -0.502570
H     -1.644219   -1.555576   -1.976423
H     -3.268370   -1.337695   -1.143296
H     -2.659646   -0.233045    1.838374
H     -2.490321   -1.929660    1.362526
H     -1.034947   -1.108330    1.945811
H     -0.792953    1.271368    1.765294
H      0.756712    2.127785    1.723099
H      0.775012    0.437182    2.251223
H     -1.574332    2.625746    0.458449
H     -1.912433    2.696690   -1.274870
H      1.505596   -2.000053   -1.538011
H      2.385381   -2.745347   -0.099421
H     -0.021552   -2.603153    0.323986
H      0.893381   -1.452710    1.376767
H     -3.091002    0.957814    0.423550
H     -2.939084    0.695680   -1.317691
H      0.474110    2.778310   -0.581755
H      0.054413    1.508664   -1.846062
H      4.744821   -1.103815   -0.662831
H      2.921171    2.599023    0.167447
H     -0.002666   -0.581493   -1.410893
