26

C     -1.641528    0.383024   -1.772477
C      3.264429   -0.978749   -0.569697
C     -2.307796   -0.264764    1.293285
C      1.906266   -1.170516   -0.470701
C     -0.803648   -0.465460    1.528779
C      3.832707    0.244219   -0.242773
C     -2.264347    0.956335    0.402048
C      1.704172    1.069393    0.275234
C      1.100864   -0.122788   -0.037616
C     -0.343227   -0.313910    0.071769
N      3.033866    1.231004    0.169890
N     -1.135566    0.752944   -0.461076
H     -2.458422   -0.375170   -1.696748
H     -2.061613    1.310311   -2.216639
H     -0.833978   -0.013009   -2.405755
H      3.930762   -1.754363   -0.898598
H     -2.621620   -1.122693    0.669893
H     -2.860781   -0.130090    2.213589
H      1.452456   -2.115734   -0.721660
H     -0.402943    0.378163    2.122146
H     -0.576345   -1.452760    1.925718
H      4.898468    0.408916   -0.315869
H     -2.015037    1.821002    1.081319
H     -3.212436    1.125945   -0.134833
H      1.056595    1.877511    0.612405
H     -0.641297   -1.278762   -0.421635
