46

C      3.721034   -3.204853   -0.156626
C     -0.907264    3.903241    1.026767
C      3.234186    1.120824    1.623179
C     -4.394657    3.084901    0.074487
C      3.747984   -2.535664    1.215571
C     -0.603443   -0.864469   -2.984086
C     -0.256048   -0.158674   -1.857200
C     -1.404332   -1.982170   -2.897709
C     -1.488985   -1.656843   -0.551850
C     -0.215185    2.553889    1.002183
C      1.761135    1.161619    1.277716
C     -0.692212   -0.542163   -0.623455
C     -1.864952   -2.401144   -1.668493
C     -0.938479    1.512486    0.681540
C      1.059476    0.112732    0.960890
C     -0.353402    0.176466    0.633259
C     -2.389327    1.693420    0.359011
C      1.737663   -1.209245    0.931468
N      1.163525    2.475366    1.321013
N     -2.691064   -3.548194   -1.549431
O     -3.026705    0.654788    0.059353
O      1.097017   -2.259199    0.629690
O     -3.125188   -3.927057   -0.307744
O     -3.034153   -4.220206   -2.530238
O     -3.049877    2.874021    0.367331
O      3.052319   -1.317984    1.226104
H      3.855410   -2.408272   -0.918573
H      2.730116   -3.664933   -0.347612
H      4.537087   -3.950778   -0.213288
H     -1.633249    3.929014    1.827019
H     -0.109802    4.657451    1.315753
H     -1.220212    4.210424    0.029044
H      3.854623    0.724415    0.830202
H      3.314091    0.481265    2.521770
H      3.540275    2.163636    1.916882
H     -5.022190    2.172122    0.250442
H     -4.588797    3.385418   -0.967687
H     -4.756254    3.930159    0.712546
H      3.212180   -3.217478    1.923673
H      4.774703   -2.408223    1.577948
H     -0.264264   -0.570078   -3.963705
H      0.370868    0.714438   -1.934243
H     -1.669785   -2.529552   -3.801287
H     -1.887049   -2.039380    0.402631
H     -0.877261   -0.412493    1.469592
H      1.700443    3.336958    1.571523
