47

C     -6.533639   -0.437773   -0.863811
C     -3.278419   -1.748661    1.237615
C     -6.928696    1.009778   -1.034460
C     -6.195793    1.918058   -0.110658
C      6.805280    0.072567    0.824308
C      0.443118   -1.536900   -0.933664
C      1.212849   -0.893313    1.200236
C      1.711678   -1.748927   -1.397269
C      2.483768   -1.103541    0.748055
C      5.791275   -0.808337    0.527403
C     -4.701711    1.953236   -0.253005
C      6.489540    1.014043   -1.298937
C     -2.344597   -1.030188    0.302506
C      7.185847    1.034620   -0.121676
C      0.122421   -1.118710    0.324872
C      2.777766   -1.520156   -0.512030
C      5.101851   -0.800554   -0.681378
C     -2.860620    0.376129    0.071395
C      8.276795    2.011676    0.145541
F      9.335289    1.801741   -0.709302
F      7.829584    3.313231    0.070680
F      8.708847    1.825631    1.459128
N      5.492938    0.137106   -1.567780
O     -2.074797    1.325737   -0.016271
O     -4.221578    0.610532   -0.030608
O     -1.091747   -0.889933    0.858929
O      4.097264   -1.713474   -0.903914
H     -5.847172   -0.776866   -1.686083
H     -7.467697   -1.046014   -1.016639
H     -6.160024   -0.681140    0.145433
H     -2.877649   -2.643881    1.703195
H     -3.760003   -1.046602    1.965358
H     -4.123980   -2.109833    0.572685
H     -8.023300    1.064198   -0.732981
H     -6.803592    1.278466   -2.083148
H     -6.440161    1.587454    0.953909
H     -6.599334    2.954553   -0.250644
H      7.329740    0.055025    1.775377
H     -0.388608   -1.716326   -1.630960
H      1.026480   -0.562971    2.210297
H      1.919441   -2.080521   -2.409168
H      3.300923   -0.908897    1.480778
H      5.517220   -1.560414    1.263890
H     -4.309470    2.621985    0.538103
H     -4.356925    2.314557   -1.245115
H      6.731327    1.744538   -2.076599
H     -2.301731   -1.540928   -0.724973
