35

C      5.163885   -0.001480   -0.429856
C      4.724398   -1.190453   -0.966002
C      4.266985    0.890468    0.073417
C      3.397499   -1.501869   -1.006587
C     -0.276624    2.150840    1.054485
C     -1.620019    1.851748    1.021179
C      1.998711    1.513170    0.560068
C      1.140731   -0.879727   -0.521163
C      2.911650    0.612695    0.051368
C      2.498054   -0.589176   -0.493122
C      0.628103    1.235393    0.539267
C     -2.009951    0.662998    0.481051
C      0.216897    0.035566   -0.004442
C     -1.128443   -0.264534   -0.038074
C     -3.460937    0.292485    0.422234
C     -3.704242   -0.232405   -0.975163
C     -1.627862   -1.534104   -0.608071
C     -2.981465   -1.530780   -1.116383
O     -3.632109   -0.718668    1.382078
O     -3.163869    0.692147   -1.880165
O     -1.875596   -1.602148   -1.982929
H      6.228123    0.210243   -0.415625
H      5.438854   -1.911140   -1.371808
H      4.593361    1.835738    0.501609
H      3.056354   -2.444065   -1.432039
H      0.050461    3.091099    1.480186
H     -2.367858    2.523021    1.405921
H      2.294716    2.452197    0.987741
H      0.756501   -1.805713   -0.935253
H     -4.108573    1.163755    0.633804
H     -4.800320   -0.316722   -1.110847
H     -1.221190   -2.495634   -0.212713
H     -3.604032   -2.458163   -1.027634
H     -4.339385   -1.349168    1.132980
H     -3.442807    1.612388   -1.605061
