49

C     -5.512505    0.160977    0.541932
C      4.784383   -1.675791    2.720727
C     -4.390586   -0.470840    0.819695
C      4.598267   -0.063455    0.329202
C      4.456050    0.705666   -0.821561
C      0.895252    0.685809   -2.829456
C     -1.674859    2.047946    0.319645
C      1.956194    1.483812   -3.236774
C     -0.612399    1.121522    0.879003
C     -2.168489    0.300034   -1.241086
C      2.408462   -0.873142    0.033046
C     -2.032536   -0.597721    1.528945
C     -2.819759    1.124313   -0.127399
C      3.590270   -0.866899    0.786307
C      0.976091   -0.157887   -1.752171
C      2.207017   -0.145883   -1.099176
C      3.261777    0.654529   -1.518637
C     -1.217042   -0.656141   -0.660847
C     -0.026594   -1.166435   -1.357854
C     -3.154107    0.301331    1.065643
N      3.116786    1.463093   -2.591634
N     -0.892625   -0.276389    0.719618
O      0.502658   -2.357476   -0.883709
O     -3.463318    1.150636    2.147542
O      3.640729   -1.660076    1.917117
H     -6.436609   -0.407808    0.361333
H     -5.562147    1.238525    0.470863
H      4.569282   -2.121007    3.724280
H      5.600710   -2.195032    2.186789
H      5.129077   -0.637083    2.912010
H     -4.341067   -1.539154    0.886620
H      5.527330   -0.036840    0.884758
H      5.271989    1.343756   -1.170065
H     -0.041479    0.707792   -3.391923
H     -2.053085    2.788735    1.039743
H     -1.257333    2.517454   -0.626170
H      1.829476    2.134822   -4.077692
H      0.404713    1.428822    0.529297
H     -0.604524    1.303449    1.981279
H     -3.039205   -0.164573   -1.768995
H     -1.744480    1.016020   -1.972873
H      1.633861   -1.478104    0.448896
H     -1.810391   -0.518598    2.616314
H     -2.302905   -1.636915    1.275097
H     -3.669321    1.648305   -0.550662
H     -1.844724   -1.621774   -0.469594
H     -0.454336   -1.472410   -2.387678
H      0.304725   -3.067321   -1.528314
H     -3.538670    0.537405    2.938569
