43

C     -5.046963    1.004437    0.554922
C      4.668553    0.796165    0.520412
C      2.231096    0.492849   -1.414169
C      3.564917   -0.228669   -1.264336
C     -3.047354   -0.520156    1.076948
C     -2.742745    1.728518    0.290035
C     -2.131782   -1.523827   -0.956009
C      0.354681   -0.091133    1.195900
C      2.775146   -0.549252    1.000368
C     -3.581507    0.764470    0.630182
C      1.454870   -0.859024    0.450987
C     -1.804427   -0.989200    0.419972
C      1.208111   -0.525456   -0.967567
C     -0.961248   -1.188080   -1.802965
C     -1.322299    1.443312    0.380967
C     -0.199113   -0.082164   -1.156005
C     -0.763083    0.077972    0.221563
N      3.854482   -0.353584    0.116257
O     -0.704677   -1.752913   -2.850805
O     -0.528212    2.382132    0.602745
H     -5.212677    1.651805   -0.335367
H     -5.594725    0.062517    0.425027
H     -5.391438    1.600254    1.433964
H      5.740455    0.613393    0.318944
H      4.462835    0.951250    1.614542
H      4.291214    1.681306    0.002173
H      2.274512    1.372444   -0.753928
H      2.107643    0.754361   -2.491563
H      3.546805   -1.221377   -1.770554
H      4.327820    0.434912   -1.755208
H     -3.845679   -1.292500    0.867204
H     -2.986360   -0.491543    2.189385
H     -3.106222    2.711967   -0.049850
H     -2.313050   -2.626794   -0.916417
H     -3.040064   -1.060852   -1.390631
H      0.750279    0.872899    1.591884
H      0.034795   -0.671718    2.088949
H      3.063842   -1.366549    1.726365
H      2.685739    0.363163    1.661565
H      1.184719   -1.943620    0.604324
H     -1.386412   -1.824814    1.016733
H      1.420668   -1.450420   -1.581350
H     -0.293146    0.853520   -1.753857
