21

C      2.986757   -0.844848    2.002713
C     -0.381203   -1.408934   -1.716037
C      2.475343   -0.478875    0.977645
C      1.842222   -0.032296   -0.238447
C     -1.543855    0.735290    1.132905
C     -0.603517   -0.337713   -0.703920
C      0.379647    0.263236   -0.056787
C     -1.881051    0.252070   -0.253334
C     -0.157913    1.250324    0.873287
O     -2.188157    1.395521   -1.025430
O      0.379779    2.262124    1.340028
H      3.422284   -1.163735    2.916102
H      0.409080   -2.122781   -1.405046
H     -1.312220   -2.003084   -1.830101
H     -0.082174   -1.010071   -2.700533
H      2.303941    0.932704   -0.590002
H      1.990016   -0.750916   -1.046840
H     -2.215585    1.531469    1.498270
H     -1.483125   -0.142539    1.797095
H     -2.717850   -0.468167   -0.265582
H     -1.622420    2.141220   -0.705986
