45

C      3.989464    1.365963   -0.217355
C     -1.995833    3.128315    1.932338
C     -2.391710   -3.344642    1.311921
C     -0.611358    3.049964    1.868437
C     -1.022467   -3.477578    1.287349
C     -2.778841    2.180282    1.291141
C     -3.046778   -2.228000    0.856762
C      0.006635    2.010285    1.153894
C     -0.297211   -2.400213    0.764811
C     -2.367071    0.199906   -1.577975
C     -0.876552    0.186408   -1.624816
C      1.193711   -0.057284   -0.229144
C      3.440870   -0.891523   -0.977281
C      1.943820   -0.962001   -1.113344
C     -2.889460    0.090185   -0.140928
C     -2.169173    1.169930    0.596468
C     -2.319960   -1.197310    0.355053
C     -0.790402    1.100159    0.538318
C     -0.915260   -1.273064    0.301119
C     -0.271843   -0.082278   -0.261178
N      4.095266    0.324378   -1.162935
O      1.702562   -0.528611   -2.476991
H      5.038843    1.724562    0.091312
H      3.478505    2.289905   -0.599963
H      3.527049    1.111853    0.743778
H     -2.484869    3.938298    2.489917
H     -2.986820   -4.170264    1.714753
H     -0.054243    3.811012    2.383096
H     -0.551737   -4.374606    1.656156
H     -3.862689    2.199076    1.312113
H     -4.139790   -2.138400    0.883637
H      1.076833    2.013253    1.151308
H      0.767714   -2.534950    0.787583
H     -2.848834   -0.651865   -2.120790
H     -2.821661    1.118323   -2.036228
H     -0.610498   -0.602158   -2.364508
H     -0.535623    1.196608   -1.930973
H      1.531584   -0.184087    0.816548
H      1.553818    0.992348   -0.499068
H      3.655696   -1.241951    0.094027
H      3.938252   -1.705042   -1.574194
H      1.682241   -2.012904   -1.163949
H     -3.957938    0.154204   -0.094384
H      4.979361    0.303891   -1.714021
H      1.996396    0.399625   -2.501812
