27

C     -0.358146   -0.960010   -1.639315
C     -1.304484   -1.030223   -0.460596
C      0.855113   -0.233409   -1.102033
C      1.443733   -0.641135    0.203663
C      0.467729    0.473537    0.119234
C      2.884173   -0.342752    0.399337
C     -1.870312    1.281923    0.150665
C     -0.967849    0.148281    0.418462
N     -1.057448   -0.208008    1.822036
O      3.581931   -1.176917    1.026892
O      3.447751    0.825240   -0.096369
O     -1.927472    1.732135   -1.020355
O     -2.664820    1.884666    1.120420
O     -0.005256    0.368722   -0.000000
H     -0.038929   -1.952010   -1.972765
H     -0.766958   -0.345636   -2.463144
H     -1.186267   -2.000858    0.061965
H     -2.327603   -0.914146   -0.835215
H      1.515830    0.195169   -1.878129
H      1.077506   -1.584254    0.625952
H      0.798285    1.514332    0.258308
H     -1.317241   -1.203486    1.887624
H     -1.727039    0.379447    2.330659
H      4.207172    1.259994    0.410309
H     -2.764653    2.898122    1.130312
H      0.820506   -0.182601    0.000000
H     -0.815249   -0.186121   -0.000000
