42

C      2.729086    0.836353   -1.352510
C      2.821147    1.386562    1.007126
C     -0.194078   -1.371280   -1.135161
C     -3.673495    0.930216   -0.803730
C      1.714049   -1.546708    1.391970
C      2.515747   -0.917332    0.312804
C      0.239767   -1.430152    1.247655
C     -2.494302   -1.142978    0.917728
C     -1.622984   -0.040691    0.399892
C      0.103375    1.629122   -0.993768
C      0.623193    0.718574    0.034334
C     -1.332180    1.656670   -1.299963
C      2.100049    0.488921   -0.013136
C     -0.199114   -0.543879    0.101369
C     -2.188537    0.651842   -0.790812
O     -3.770448   -0.661533    1.184940
O      0.820836    2.393955   -1.633508
O     -1.673855    0.428854   -2.063621
H      2.128728    0.551617   -2.213303
H      3.085158    1.904504   -1.374544
H      3.690825    0.248511   -1.442534
H      3.864263    1.043572    1.071081
H      2.688571    2.444414    0.778828
H      2.347282    1.126410    1.994638
H     -1.250834   -1.734193   -1.310663
H      0.369090   -2.342227   -0.988538
H      0.238509   -0.910642   -2.019833
H     -4.064302    1.369208    0.112543
H     -3.924535    1.567891   -1.706765
H     -4.191684   -0.029223   -1.004462
H      2.062839   -2.607278    1.493902
H      2.028043   -1.065312    2.364737
H      2.586672   -1.522258   -0.614831
H      3.584930   -0.870078    0.679913
H     -0.161975   -2.445811    1.046880
H     -0.221483   -1.010244    2.184978
H     -2.636833   -1.964849    0.161066
H     -2.129599   -1.623849    1.820771
H     -1.513349    0.702343    1.216941
H      0.416724    1.236355    1.022848
H     -1.776472    2.563843   -1.795862
H     -3.738822   -0.099218    2.010600
