31

C     -3.758981   -0.539536   -1.222106
C      5.590167    0.489912    0.049669
C     -1.651006    1.078333    0.150009
C     -0.406904    1.661935    0.167944
C      1.751512   -1.283418   -0.004248
C      2.997731   -0.691230    0.014103
C     -0.612199   -1.065343    0.029838
C      2.006494    1.441597    0.133253
C     -3.057301   -0.959348    0.058945
C     -1.752676   -0.302147    0.080082
C      0.644769   -0.477119    0.047883
C      0.750710    0.911523    0.118187
C      3.145850    0.670302    0.082602
C     -3.915723   -0.635278    1.203186
O     -4.299464   -1.563677    1.955843
O     -4.345785    0.644079    1.525457
O      4.419329    1.247882    0.099940
H     -4.488362    0.250925   -1.004558
H     -4.306367   -1.400789   -1.672042
H     -3.028206   -0.119810   -1.952695
H      5.526798   -0.417442    0.707727
H      6.434020    1.108953    0.433318
H      5.771506    0.142660   -0.984840
H     -2.583447    1.619372    0.186823
H     -0.339730    2.738161    0.222575
H      1.646049   -2.361355   -0.058597
H      3.856271   -1.329963   -0.027022
H     -0.661243   -2.162122   -0.026025
H      2.098661    2.515598    0.187529
H     -2.913187   -2.051110    0.001232
H     -4.519286    0.838456    2.503048
