40

C      0.668438   -2.752766    2.208084
C     -0.682484   -2.721590    1.993053
C      1.534084   -1.872103    1.577555
C      2.129471    1.536220   -1.826206
C      3.466445    1.621597   -1.532313
C     -2.687532   -1.765527    0.871477
C     -2.824466    2.455173   -0.432815
C     -3.090690   -0.369573    0.497553
C     -2.897921    1.201121   -1.254331
C     -0.091275    0.472909   -1.496739
C     -1.232190   -1.795491    1.130235
C      1.337430    0.672599   -1.130353
C      0.991833   -0.948504    0.715218
C     -0.922576    0.207534   -0.312212
C      4.028303    0.849719   -0.543939
C     -0.391003   -0.910125    0.497323
C      1.889947   -0.118903   -0.118184
C      3.216699   -0.042420    0.180677
Cl    -3.623040    3.745478   -1.401573
N     -2.314966    0.053256   -0.659369
O      5.372344    0.939090   -0.255794
O      3.787270   -0.803386    1.163901
H      1.046545   -3.511348    2.907824
H     -1.384225   -3.405067    2.474964
H      2.551863   -1.995516    1.811887
H      1.674604    2.140087   -2.603459
H      4.110324    2.301723   -2.074652
H     -3.283214   -2.166678    1.711265
H     -2.856302   -2.411400   -0.037349
H     -3.377237    2.412910    0.512314
H     -1.772031    2.765314   -0.341946
H     -3.027395    0.328017    1.334637
H     -4.160050   -0.426582    0.141527
H     -2.422501    1.427045   -2.239788
H     -3.976992    1.044082   -1.490464
H     -0.411631    1.440480   -1.962233
H     -0.202460   -0.323243   -2.269083
H     -0.794309    1.120132    0.368912
H      5.880339    0.431207    0.433390
H      4.740549   -0.825474    1.451006
