53

C     -2.039452   -2.123876   -1.145311
C      7.312052    1.482538    0.371574
C      4.965749   -1.976222    2.615099
C     -6.879773    0.899592   -1.501459
C     -6.452372    1.617625   -0.410710
C     -6.332910   -0.331004   -1.813928
C     -5.457608    1.060733    0.357202
C     -5.334740   -0.886672   -1.040854
C     -0.945290    1.210944   -0.002014
C     -2.314903    1.039635    0.617627
C      2.567925    0.786869   -0.479261
C      4.864810    0.111392    0.798604
C     -3.822196   -0.762560    0.901613
C     -2.051630   -0.679821   -0.761550
C     -4.890948   -0.183707    0.057651
C      2.526997   -0.263101    0.406390
C      3.740992    1.508524   -0.739011
C     -0.596242   -0.132022   -0.658577
C      4.905544    1.166069   -0.091136
C      3.711516   -0.588680    1.045920
C      1.305460   -1.004858    0.668382
Cl     3.759986    2.839964   -1.872116
N      6.111815    1.888861   -0.341737
N      0.169069   -0.889295    0.222830
N     -2.499104   -0.396053    0.554722
O      1.469215   -2.063254    1.623896
O      3.756581   -1.649298    1.966894
H     -2.722248   -2.758619   -0.573481
H     -2.331248   -2.196418   -2.214290
H     -1.029291   -2.588978   -1.071678
H      7.210579    1.777103    1.429506
H      8.203741    2.010281   -0.020568
H      7.473228    0.392891    0.271200
H      5.744831   -2.274158    1.872597
H      4.774340   -2.806138    3.315743
H      5.397223   -1.112682    3.174883
H     -7.666514    1.324141   -2.121465
H     -6.845105    2.577515   -0.125744
H     -6.680139   -0.880603   -2.673216
H     -5.070722    1.583186    1.245182
H     -4.907697   -1.870414   -1.299328
H     -0.244458    1.422375    0.838399
H     -0.941034    1.989770   -0.766820
H     -2.373660    1.443770    1.637605
H     -3.072676    1.481309   -0.069810
H      1.703791    1.123414   -1.030417
H      5.800285   -0.148122    1.305718
H     -3.995824   -1.843035    0.990008
H     -4.006075   -0.351906    1.938895
H     -2.551916   -0.005162   -1.480876
H     -0.207376   -0.000763   -1.692628
H      6.106414    2.668582   -1.010282
H      0.681007   -2.639663    1.891932
