54

C      2.606784   -2.438890    0.977330
C      3.184740   -1.756558   -1.262676
C      2.960512    1.709384   -1.113828
C      4.070132    1.342739    1.028441
C     -4.371328    3.336007    0.130630
C     -4.651379    2.133217   -0.477330
C     -3.065761    3.557804    0.536064
C     -2.168894   -3.292998    0.066856
C     -2.624172   -3.273944    1.359937
C     -3.645167    1.182478   -0.670571
C     -2.066006    2.612288    0.343820
C     -1.760110   -2.105421   -0.521306
C     -0.009957    0.744096    0.083568
C     -2.649542   -2.060385    2.008795
C      0.955820   -0.398367   -0.172917
C      3.160081   -1.249344    0.170558
C      2.779514    1.136178    0.281156
C     -2.361435    1.416899   -0.264508
C     -1.793149   -0.890725    0.151270
C     -1.264993    0.214633   -1.989541
C     -1.343300    0.344873   -0.518843
N     -0.242639    0.617463   -2.636409
N     -2.248785   -0.933540    1.415463
N      2.264011   -0.169341    0.338128
O     -2.318862   -0.348945   -2.672843
H      2.183731   -2.112323    1.931688
H      1.921041   -3.064739    0.356489
H      3.485996   -3.105806    1.211404
H      2.234314   -2.305825   -1.446389
H      3.272383   -0.978937   -2.016639
H      3.977722   -2.546845   -1.360431
H      4.035810    1.485933   -1.382194
H      2.362508    1.226465   -1.883460
H      2.894170    2.821305   -1.127838
H      3.910119    1.123922    2.123200
H      4.294655    2.443441    0.994804
H      4.939751    0.838612    0.608362
H     -5.124693    4.099736    0.297612
H     -5.666294    1.948695   -0.799109
H     -2.798028    4.489161    1.018572
H     -2.143454   -4.247540   -0.456529
H     -2.961349   -4.185338    1.878336
H     -3.943388    0.264672   -1.151240
H     -1.048515    2.778836    0.658256
H     -1.402537   -2.158583   -1.541812
H     -0.136665    0.913006    1.158254
H      0.364710    1.687200   -0.368696
H     -3.005874   -2.029149    3.022009
H      0.979754   -0.724549   -1.216668
H      0.485696   -1.276528    0.374269
H      4.148817   -1.040601    0.581435
H      2.034466    1.827403    0.788755
H     -0.146712    0.545079   -3.671750
H     -2.544250   -0.146304   -3.629138
