38

C      4.646305   -0.733996    0.084869
C      4.706143    1.693252    0.854717
C     -5.898977   -0.651514    0.336261
C      0.140585    1.353091    0.755159
C      2.078788   -0.248333   -1.019466
C      2.815891    0.793560   -0.349195
C      0.799135   -0.763019   -0.425846
C     -3.834106    0.701630    0.557789
C     -2.483662    0.886778    0.427129
C     -3.626110   -1.468625   -0.319197
C      3.999508    0.588448    0.166850
C     -4.421061   -0.476451    0.186527
C     -0.231494    0.250002   -0.227075
C     -1.627158   -0.097536   -0.083765
C     -2.256390   -1.260392   -0.442934
O     -1.531404   -2.291898   -0.952483
H      4.709064   -1.080022   -0.989970
H      5.700646   -0.658622    0.460213
H      4.088872   -1.497800    0.662956
H      4.613141    2.645102    0.291552
H      5.757236    1.411409    1.070394
H      4.192214    1.864248    1.838647
H     -6.333055    0.304748    0.689396
H     -6.316853   -0.871292   -0.663124
H     -6.102055   -1.477910    1.024850
H      1.070560    1.008273    1.276598
H     -0.614719    1.316033    1.597790
H      0.173430    2.338164    0.323504
H      1.913975   -0.006156   -2.113874
H      2.738192   -1.179665   -1.093434
H      2.401588    1.806339   -0.297221
H      1.096534   -1.302449    0.505410
H      0.448693   -1.511668   -1.203019
H     -4.482569    1.480536    0.957890
H     -2.119995    1.861643    0.718433
H     -4.072812   -2.404913   -0.617341
H     -0.220783    0.853522   -1.244887
H     -1.917298   -3.174517   -1.236193
