56

C      1.936206   -0.059635    3.062602
C      4.473909    0.735801   -1.173619
C      5.395339    0.862271   -0.162100
C      2.805779    0.290493    0.395393
C     -5.301155    0.052928    3.201061
C     -3.802281    1.583083    2.104113
C      0.128235    1.226548   -0.932905
C     -1.533851   -1.539664    0.543425
C      1.617712   -1.584632   -3.452530
C      3.139770    0.444368   -0.935756
C     -4.891060    1.339996    2.936988
C     -0.553734    0.091382   -1.067614
C      1.144171    1.450157   -2.033550
C      1.452062   -0.998206   -2.052731
C      5.014177    0.700371    1.141904
C     -4.637157   -1.010659    2.642813
C     -2.826055   -1.848852    1.205827
C     -1.726066   -0.268079   -0.243794
C      3.699805    0.410232    1.423520
C     -3.115727    0.534765    1.529068
C      2.179444    0.314931   -2.025264
C     -3.558351   -0.746828    1.818534
C     -0.075429   -0.824356   -2.107981
C      0.370295    1.225827   -3.296668
C     -0.129712   -0.175475   -3.501287
O     -5.573836    2.405468    3.509852
O      5.924045    0.821206    2.203840
O     -5.016755   -2.335180    2.881713
O     -3.265654   -3.023927    1.232362
O      0.156865    2.102954   -4.102043
O     -1.399295   -0.211796   -4.034947
O      3.305429    0.243017    2.768057
O      0.771464   -0.873984   -4.266021
O     -2.018667    0.757283    0.688954
H      1.241895    0.662091    2.614710
H      1.789027   -0.255179    4.129058
H      1.745677   -1.043156    2.542063
H      4.770296    0.863957   -2.222593
H      6.422455    1.089346   -0.388314
H      1.790375    0.064893    0.634501
H     -6.149719   -0.167826    3.849054
H     -3.464803    2.593467    1.884756
H     -0.017218    1.921882   -0.130096
H     -0.799235   -1.307387    1.351382
H     -1.159406   -2.375769   -0.079489
H      1.370734   -2.676194   -3.448087
H      2.686070   -1.521331   -3.748360
H      1.604141    2.433019   -1.976746
H      1.750201   -1.695190   -1.270205
H     -2.644018   -0.435684   -0.880272
H      2.744964    0.491285   -2.989834
H     -0.516783   -1.818624   -2.098786
H     -6.356166    2.250929    4.109138
H      6.895665    1.034755    2.009809
H     -5.777072   -2.597900    3.459501
H     -2.016997    0.396807   -3.560851
