41

C     -3.688499    1.484831   -0.423937
C     -2.411090    1.104465    0.340905
C     -0.356409   -2.666328   -0.417181
C      1.120707   -2.452089   -0.160920
C     -2.205017   -0.375367    0.321194
C     -1.029144   -2.273278    0.905584
C      2.213248   -0.320913   -0.758710
C      0.604074    0.919717    1.424933
C      2.415724    2.772422    1.161847
C      1.342023   -1.056737    0.272761
C      1.810980    1.568019    0.853878
C      2.554582    0.993221   -0.155707
C      0.134307   -0.208232    0.491973
N      3.487078    2.911129    0.360317
N      3.557886    1.858805   -0.409492
N     -1.021445   -0.829392    1.020821
Cl     0.690002    0.000000    0.000000
Cl     0.684130    0.000000    0.000000
H     -4.526311    0.843125   -0.103438
H     -3.508641    1.312941   -1.503709
H     -3.857392    2.559376   -0.279173
H     -2.548856    1.485219    1.362749
H     -1.603349    1.602924   -0.230478
H     -0.585095   -3.723653   -0.655279
H     -0.639402   -1.976107   -1.233246
H      1.740160   -2.770704   -1.024270
H      1.372050   -3.149307    0.690358
H     -3.137307   -0.831632    0.769093
H     -2.207688   -0.772567   -0.733620
H     -2.052732   -2.699001    0.863629
H     -0.449776   -2.762584    1.714035
H      3.078415   -0.908021   -1.062743
H      1.514023   -0.118507   -1.614944
H      0.935557    0.415027    2.357898
H     -0.184605    1.614445    1.695784
H      2.122487    3.507512    1.903464
H      1.978976   -1.055032    1.203684
H     -0.116725    0.261641   -0.490233
H      4.147206    3.734629    0.364888
H     -0.690002    0.000000    0.000000
H     -0.684130    0.000000    0.000000
