49

C     -1.521635    2.269514    1.099851
C     -1.801644    1.218625   -1.166362
C     -2.454463   -0.064316   -1.634704
C     -4.143174   -2.853710   -1.171904
C      3.032935    2.618736   -0.688688
C     -2.305662   -2.822521    0.361603
C     -2.265236    1.353214    0.240308
C     -3.149469   -2.107874   -0.366621
C      2.629874    1.204101   -0.348814
C     -2.334397   -0.076743    0.689388
C      3.783598    0.473640    0.305428
C      3.390325   -0.996295    0.332206
C      2.151048   -1.080615    1.211117
C     -1.041802   -0.826000    0.643151
C      1.108337   -0.145385    0.618696
C     -3.181171   -0.635733   -0.438142
O     -4.963671   -2.246617   -1.877138
O      2.017495    3.329484   -1.281723
O      4.981622    0.677871   -0.368764
O      4.400588   -1.815499    0.763724
O      1.621111   -2.346052    1.258545
O     -4.481066   -0.133350   -0.343039
O     -1.367352   -2.148207    1.122616
O      1.560773    1.152506    0.527243
O     -0.028895   -0.275685    1.398316
H     -2.190504    3.024225    1.539557
H     -1.112594    1.702259    1.987083
H     -0.650326    2.775957    0.649621
H     -2.106015    2.079605   -1.803745
H     -0.700352    1.161704   -1.191353
H     -3.192680    0.205498   -2.413183
H     -1.748687   -0.769363   -2.097025
H     -4.170513   -3.938556   -1.158966
H      3.395771    3.141589    0.221457
H      3.893999    2.547360   -1.384803
H     -2.353192   -3.924789    0.358846
H     -3.344311    1.693285    0.177783
H      2.372727    0.663193   -1.273606
H     -2.854255   -0.194447    1.663792
H      3.820497    0.811518    1.358629
H      3.053051   -1.230713   -0.716900
H      2.404585   -0.670743    2.214608
H     -0.668427   -0.993756   -0.382400
H      0.938273   -0.509242   -0.419169
H      1.923647    2.996641   -2.211521
H      5.703736    0.578769    0.319886
H      4.358075   -1.880069    1.752935
H      2.306262   -3.063379    1.309415
H     -4.716837    0.070367    0.612768
