19

C      2.416794    0.714507   -0.804887
C      2.330903   -0.640463   -1.030957
C      1.336979    1.386284   -0.276081
C      1.150801   -1.279636   -0.714956
C     -0.981718    1.460223    0.623948
C     -2.098561    0.842387    0.946606
C      0.146971    0.750689    0.044734
C      0.045182   -0.606357   -0.176742
C     -2.246112   -0.594217    0.734955
C     -1.196432   -1.335189    0.119258
O     -1.397259   -1.443541    1.558434
H      3.337286    1.218137   -1.050768
H      3.169876   -1.215912   -1.451638
H      1.368767    2.460279   -0.083399
H      1.080161   -2.341833   -0.890953
H     -0.857754    2.533321    0.778751
H     -2.914632    1.399429    1.371637
H     -3.270798   -1.034816    0.736651
H     -1.420452   -2.273293   -0.434590
