42

C     -0.145357    2.436021   -1.130146
C     -0.597658   -2.130478    0.581684
C     -1.699054   -0.357923    1.800646
C      4.123358   -0.603360    0.596424
C      2.036391   -0.943067   -0.681567
C      0.749141   -0.287311   -1.126118
C     -2.290565    1.631732   -0.420035
C      0.768174    0.639457    1.132639
C     -0.818803    1.473325   -0.549185
C     -3.079115    0.404444   -0.725266
C      2.188804    0.967313    0.868873
C     -2.223743   -0.808622   -0.595172
C     -1.158529   -0.705719    0.453314
C      2.922945    0.087202   -0.074548
C     -0.086556    0.269327   -0.036606
Br    -3.359877   -2.359264   -0.301801
Br     3.713318    1.115670   -1.538353
Cl     3.021169    0.827974    2.469763
O     -4.264820    0.324217    0.042345
H     -0.659894    3.307555   -1.496838
H      0.915139    2.368484   -1.242695
H     -0.290713   -2.550677   -0.372110
H     -1.515800   -2.729397    0.873262
H      0.076347   -2.242607    1.428912
H     -2.747318    0.002824    1.780596
H     -1.130131    0.396399    2.341476
H     -1.725416   -1.251644    2.473799
H      4.938778    0.114527    0.747682
H      4.441795   -1.475881   -0.005125
H      3.775323   -0.974733    1.581156
H      2.480982   -1.377547   -1.619377
H      1.928189   -1.773771    0.006749
H      0.236654   -1.059143   -1.748846
H      1.053598    0.487692   -1.860618
H     -2.609046    2.409393   -1.144091
H     -2.547893    2.072483    0.588771
H      0.314162    1.578500    1.570690
H      0.758247   -0.197686    1.889867
H     -3.463250    0.420665   -1.789056
H      2.387714    2.019241    0.573702
H     -1.739920   -0.991642   -1.573084
H     -4.676773   -0.533971   -0.157892
