42

C     -1.252265   -1.448831    1.847239
C     -0.194327    2.205988   -1.089619
C     -1.237530    2.155925    1.110042
C      3.711925   -0.489612    0.128993
C      1.566420   -1.555669   -0.218072
C      0.809544   -0.352147   -0.788229
C     -1.735906   -1.513589   -0.569841
C      0.791732    0.566545    1.454636
C     -1.019933   -0.963093    0.648150
C     -2.313960   -0.405208   -1.385274
C      1.941176   -0.268979    1.856728
C     -2.249671    0.924655   -0.685146
C     -0.945841    1.299137   -0.106494
C      2.542236   -1.145705    0.827160
C     -0.073844    0.141970    0.336769
Br    -3.670227    0.872975    0.659598
Br     3.281207   -2.712344    1.733391
Cl     3.211152    0.720840    2.683515
O     -3.699895   -0.683487   -1.517919
H     -1.965331   -2.252175    1.959721
H     -0.758488   -1.065993    2.705595
H     -0.907687    3.027645   -1.341691
H      0.632850    2.652270   -0.530858
H      0.090730    1.681028   -1.999856
H     -2.063253    2.898395    0.874532
H     -0.396841    2.818604    1.398068
H     -1.660209    1.575879    1.959430
H      4.438320   -0.185882    0.900209
H      4.203197   -1.283642   -0.477474
H      3.421457    0.316072   -0.551070
H      2.017520   -2.105521   -1.059975
H      0.802361   -2.205833    0.265592
H      0.255720   -0.758720   -1.653156
H      1.486151    0.412176   -1.171035
H     -2.536609   -2.191698   -0.148675
H     -1.110863   -2.160287   -1.179817
H      0.124556    0.705018    2.360777
H      1.215982    1.597905    1.315606
H     -1.953433   -0.345261   -2.433293
H      1.594742   -0.944116    2.696663
H     -2.565589    1.700326   -1.425371
H     -3.827276   -1.235561   -2.321959
