62

C      0.558152    2.948554   -1.681031
C     -0.113453    3.973289    1.694580
C     -5.702952   -0.273644   -0.319327
C      5.708436   -0.092010    0.226204
C     -3.062955   -3.069848    2.409501
C      3.169245   -3.004649   -2.357484
C      0.417870   -2.054866    2.308782
C     -0.430179   -2.185113   -2.227235
C     -1.670110    2.196683   -1.015922
C      1.494533    2.335906    0.898990
C     -3.023577    0.478179   -0.435203
C      2.919780    0.629161    0.362635
C     -0.463029    2.991893   -0.581008
C      0.026383    2.753204    0.788023
C     -1.714537    0.842071   -0.494258
C      1.591347    0.941532    0.419088
C     -3.396116   -0.760648    0.081087
C      3.342726   -0.622652   -0.107216
C     -0.762911   -0.081421   -0.016349
C      0.693731   -0.048704   -0.012223
C     -2.399744   -1.627812    0.543655
C      2.397543   -1.554205   -0.523318
C     -1.067397   -1.300544    0.505669
C      1.050955   -1.273704   -0.483318
O     -4.722949   -1.167348    0.153640
O      4.687064   -0.964215   -0.170594
O     -2.770981   -2.857048    1.056763
O      2.862237   -2.788749   -0.984898
O     -0.035506   -2.083976    0.964641
O      0.054051   -2.121726   -0.898325
H      1.425881    3.597827   -1.441983
H      0.812391    1.957556   -2.049054
H      0.072519    3.478769   -2.560335
H     -1.199478    4.159054    1.927578
H      0.360573    4.863840    1.272674
H      0.394420    3.714441    2.647312
H     -6.717796   -0.719441   -0.329880
H     -5.728324    0.635172    0.314265
H     -5.493129    0.075553   -1.367254
H      6.667861   -0.391417   -0.286041
H      5.896808   -0.105487    1.323293
H      5.543441    0.961477   -0.075108
H     -4.075940   -3.563274    2.443707
H     -2.301119   -3.697223    2.912779
H     -3.135971   -2.125175    3.000254
H      4.244449   -3.227435   -2.509250
H      2.565371   -3.877747   -2.707682
H      2.832257   -2.121809   -2.910716
H      0.440313   -3.076415    2.750226
H      1.471499   -1.726768    2.288647
H     -0.184514   -1.341557    2.873061
H     -0.926936   -3.134811   -2.454678
H     -1.180044   -1.379922   -2.339335
H      0.394010   -1.910986   -2.915512
H     -1.663991    2.162272   -2.122235
H     -2.587839    2.728458   -0.694635
H      2.165539    3.001440    0.341410
H      1.830790    2.416983    1.967910
H     -3.840748    1.117412   -0.779424
H      3.684574    1.334894    0.677402
H     -0.827488    4.073210   -0.589434
H     -0.577034    1.963517    1.286491
