69

C     -3.462493   -2.982904   -1.864062
C     -4.989459   -1.323046   -0.991099
C     -2.714612    5.485799   -1.953434
C     -5.554548   -2.343069    3.337574
C     -5.417576   -1.098009    2.763785
C     -4.766812   -3.360766    2.851549
C      8.298081    1.227987    0.136078
C      7.400926    2.444490    0.226873
C     -4.515162   -0.886884    1.733064
C     -3.871107   -3.152238    1.828759
C      0.053015   -1.602205   -0.733978
C      0.501395   -0.272743    1.137385
C      1.386052   -1.880981   -0.888512
C      1.868850   -0.547549    0.994755
C     -2.147832    3.082501   -0.490570
C     -1.870735    1.951896    0.220499
C      7.405723    0.061676    0.509151
C      6.305780    2.013683    1.179969
C      5.001782    0.211848    0.271538
C      4.772602   -1.265155    0.445603
C     -2.998889    1.800342   -2.263982
C     -0.429542   -0.797179    0.272878
C     -3.713872   -1.904642    1.232463
C      2.353708   -1.348619   -0.008593
C     -2.720154    3.050909   -1.754985
C     -2.167511    0.717332   -0.329911
C     -2.734595    0.632043   -1.577917
C     -1.875958   -0.509512    0.414976
C     -2.747485   -1.676018    0.122222
C     -3.516597   -1.616690   -1.160432
N      6.186704    0.580266    1.032154
O     -2.997022    4.211405   -2.468337
O      3.662677   -1.681749   -0.234454
O     -3.003832   -0.628958   -2.064494
H     -3.322537   -3.741739   -1.072557
H     -4.381482   -3.155219   -2.462460
H     -2.583729   -2.970873   -2.539184
H     -5.456679   -1.628938   -1.977790
H     -5.208373   -0.238851   -0.925686
H     -5.492771   -1.943370   -0.245405
H     -2.857694    6.248971   -2.737742
H     -1.699290    5.559079   -1.505594
H     -3.455098    5.676656   -1.122651
H     -6.271066   -2.461089    4.138226
H     -6.026472   -0.257096    3.121097
H     -4.872413   -4.335518    3.299321
H      8.631376    1.085171   -0.925722
H      9.134316    1.249057    0.852388
H      7.983387    3.274480    0.646511
H      6.939397    2.661495   -0.757637
H     -4.420083    0.110700    1.293788
H     -3.235631   -3.952554    1.429493
H     -0.697712   -2.012259   -1.412758
H      0.178710    0.376927    1.962103
H      1.734236   -2.518754   -1.692169
H      2.554599   -0.134914    1.714933
H     -1.923659    4.060949   -0.079356
H     -1.426484    1.987274    1.201504
H      7.230215   -0.594780   -0.372878
H      7.885597   -0.571890    1.301490
H      5.345711    2.550516    0.996927
H      6.587614    2.220582    2.237604
H      4.145424    0.833994    0.510992
H      5.204862    0.385391   -0.832380
H      5.675619   -1.796731    0.040317
H      4.691370   -1.448532    1.550466
H     -3.443799    1.743886   -3.244719
H     -2.015231   -0.243867    1.506347
H     -2.113728   -2.611409    0.095762
