38

C     -4.062722   -0.302098    0.758611
C     -2.778555   -1.482958   -1.018539
C      1.347348   -2.102332   -0.927445
C      2.551288   -2.467086   -0.366618
C      1.005598   -0.781003   -0.961420
C      4.018540    0.563311    0.673250
C      5.014886   -0.330839    1.074765
C     -1.896272    1.339813   -0.436636
C      0.448398    2.335932   -0.890756
C     -2.701491   -0.800866    0.325774
C     -0.874445    2.391534   -0.252103
C      2.998653   -0.155440    0.094056
C      3.371814   -1.468256    0.143829
C      1.765121    0.261626   -0.475291
N      4.587435   -1.558749    0.736695
N     -1.691902    0.225806    0.409608
O     -0.790821    2.808966    1.093969
O      1.449067    1.555583   -0.505404
H     -3.956555    0.260375    1.702956
H     -4.638863   -1.233619    1.040303
H     -4.636154    0.194791   -0.017632
H     -3.882107   -1.579516   -1.258966
H     -2.454556   -2.564202   -0.945943
H     -2.234034   -0.989839   -1.823016
H      0.729537   -2.899449   -1.316321
H      2.853950   -3.499415   -0.322410
H      0.058834   -0.553890   -1.443008
H      4.099558    1.629710    0.822983
H      5.953246   -0.091276    1.564040
H     -1.778226    0.966152   -1.504293
H     -2.940258    1.731535   -0.435100
H      0.836375    3.423376   -0.885009
H      0.255775    2.218643   -2.030928
H     -2.409643   -1.581903    1.061223
H     -1.363091    3.359110   -0.742703
H      5.090609   -2.474790    0.891763
H     -1.674362    0.509427    1.427876
H     -1.671975    3.141839    1.402606
