18

C      2.509526   -0.159409    0.113781
C      0.224589   -0.992810    0.150804
C      1.039782    0.038843    0.266494
C     -1.243800   -0.847337    0.294148
C      0.471131    1.346880    0.541812
C     -1.747420    0.525561    0.009189
C     -0.927305    1.644928    0.203480
O     -1.849071   -1.766446   -0.580244
O      1.197869    2.220476    1.075446
O     -1.915327    1.396673    1.188910
H      2.704859   -1.055524   -0.492615
H      2.910288    0.707345   -0.419088
H      2.947786   -0.330331    1.108063
H      0.602780   -1.985112   -0.053525
H     -1.541867   -1.196457    1.323528
H     -2.675631    0.577761   -0.617140
H     -1.065330    2.564592   -0.416362
H     -1.642861   -2.689634   -0.232816
