172

C      8.236715    4.504476    2.850158
C      5.130460    2.094354   -1.220094
C     -7.225647   -1.526265    2.652991
C     -3.492798   -7.888645   -1.903898
C     -2.484204   -3.603735   -5.879534
C     -6.271808   -4.796222   -3.096684
C      4.187836   -1.036908    1.186520
C     -0.296185   -2.507192    2.593795
C      0.279355   -0.218960    4.955282
C      1.690259    0.010971    4.574666
C      1.277598   -0.870271    0.909968
C      2.216244    0.147911    0.300881
C      8.775126    2.521153    1.419659
C     -2.039606   -0.824906    4.749152
C     -2.412712    0.459474    2.649224
C      4.255292    0.757101    3.265161
C     12.432190    0.137035   -2.014707
C     -6.179481    5.645848   -1.466495
C      7.134697    4.232525    0.635875
C     -1.267078   -4.787139   -1.670425
C      8.397500    3.972577    1.433066
C      5.434539    1.277728    0.017610
C     -7.093350   -0.150136    2.103179
C     -2.334134   -6.975572   -1.972820
C     -2.254918   -2.839019   -4.595272
C     -5.509923   -3.568686   -2.873041
C     -0.652598   -0.659327    4.152378
C     -2.986283    0.092403    3.992395
C      1.963901   -0.381789    3.154481
C      0.789840   -0.300815    2.228432
C      2.945570    0.598760    2.602351
C      4.934059    1.721588    2.271820
C     10.942325   -0.068218   -2.149764
C     -7.421225    4.991141   -0.940932
C     -1.561891   -3.382684   -1.223555
C     -1.655344   -0.578975    1.938713
C      7.886952    1.845553    0.343119
C      4.258940    1.457551    0.938312
C     -8.170233    0.159663    1.046037
C     10.693011   -1.510096   -2.505537
C     -8.668176    5.843306   -1.086657
C      9.296417   -1.879619   -2.165671
C     -9.824256    4.908441   -1.400954
C      8.352510   -0.726369   -1.933949
C     -9.739452    3.663136   -0.501802
C     -6.447006    0.214694   -0.728877
C     -2.415890   -2.610233   -2.159362
C     -7.527504    1.029407   -0.031428
C     -3.824503   -2.329325   -1.660389
C     -3.836152   -1.920443   -0.184998
C      8.939770    0.356975   -1.097655
C     -8.400471    3.018443   -0.612950
C     -5.724397   -0.635497    0.342434
C     -2.453684   -2.048260    0.350542
C      3.430112    0.249161    1.187515
C     -0.412582   -0.991103    2.752609
C      6.501149    1.994969    0.803773
O     12.997148   -0.151216   -3.266324
O     -5.108895    4.774566   -1.279365
O     -1.213564   -7.404155   -2.391891
O     -1.702784   -1.720777   -4.712140
O     -5.690102   -2.539615   -3.556142
O     -4.206291   -0.556049    3.931412
O     -9.193110    0.826597    1.684186
O     11.050161   -1.784834   -3.830854
O     -8.907980    6.634314    0.011565
O      9.256481   -2.783004   -1.079481
O     -9.666983    4.514618   -2.737864
O      7.899196   -0.255217   -3.165943
O    -10.078476    4.053602    0.799787
O     -7.083704   -0.604630   -1.645460
O     -2.363785   -5.644666   -1.606675
O      6.142455    3.334595    0.905322
O     -5.863052    0.131224    1.505649
O     -2.629930   -3.342060   -3.384824
O     -4.554470   -3.508097   -1.885801
O     10.334568    0.198256   -0.948363
O     -7.702265    3.769825   -1.612666
O     -2.012159   -3.335893    0.096084
O     -2.408197   -1.680636    1.680511
O      8.342503    0.546029    0.143886
O     -8.386738    1.672026   -0.867254
O     -4.420496   -0.669818   -0.041399
O      6.275608    1.427098    2.082245
H      7.781997    3.662480    3.435493
H      7.582761    5.406737    2.847228
H      9.207284    4.706019    3.339550
H      4.132552    2.585801   -1.166504
H      5.858853    2.903481   -1.400273
H      5.199988    1.434288   -2.132372
H     -7.114523   -1.488490    3.779181
H     -8.212640   -1.992106    2.454569
H     -6.381355   -2.209931    2.345851
H     -3.985078   -7.908283   -0.912570
H     -3.186267   -8.895157   -2.251202
H     -4.255182   -7.528459   -2.653455
H     -3.000040   -2.987105   -6.611654
H     -1.565340   -4.081371   -6.225031
H     -3.190334   -4.433166   -5.590971
H     -6.867953   -5.032587   -2.173646
H     -5.613984   -5.654449   -3.314400
H     -7.003714   -4.625408   -3.927388
H      3.872166   -1.769223    1.955980
H      5.288329   -0.934279    1.331667
H      4.028429   -1.573755    0.205129
H      0.307641   -2.891968    3.466697
H      0.149118   -2.790911    1.642205
H     -1.281373   -2.994993    2.694884
H      0.023201    0.007272    6.002280
H      1.954351    1.068506    4.760564
H      2.324468   -0.596718    5.271708
H      0.508854   -1.220773    0.238391
H      1.932067   -1.758040    1.162023
H      2.544472   -0.273722   -0.677472
H      1.684080    1.111916    0.187858
H      9.825016    2.317001    1.135958
H      8.601800    2.023101    2.395734
H     -2.072410   -0.533071    5.809642
H     -2.367232   -1.882076    4.701084
H     -1.848936    1.410642    2.814871
H     -3.273544    0.774928    2.002541
H      4.848093   -0.180499    3.347329
H      4.216959    1.183322    4.278846
H     12.668104    1.205190   -1.804522
H     12.909256   -0.496880   -1.269123
H     -5.962317    6.541457   -0.836288
H     -6.234122    5.981701   -2.510180
H      7.384308    4.396801   -0.419166
H      6.770635    5.231885    1.004630
H     -0.418540   -5.204288   -1.074796
H     -0.909414   -4.811844   -2.739141
H      9.209164    4.552790    0.958477
H      5.673774    0.248365   -0.243278
H     -7.226107    0.616049    2.904953
H     -3.118223    1.003693    4.625212
H      2.299795   -1.428583    3.171678
H      0.558924    0.771516    2.069973
H      2.452268    1.588177    2.561009
H      4.766854    2.763093    2.606726
H     10.607423    0.631568   -2.945861
H     -7.271120    4.756851    0.127166
H     -0.541971   -2.874248   -1.174157
H     -1.256047   -0.109073    0.990103
H      8.062924    2.467419   -0.553859
H      3.604009    2.301026    0.626232
H     -8.494282   -0.802407    0.651482
H     11.403087   -2.118752   -1.889881
H     -8.521676    6.485023   -1.980381
H      8.882131   -2.462640   -3.037281
H    -10.757337    5.422423   -1.194184
H      7.449573   -1.151609   -1.412549
H    -10.553474    2.995489   -0.849245
H     -5.732077    0.868246   -1.220157
H     -1.909394   -1.670172   -2.468699
H     -6.981836    1.810897    0.582554
H     -4.205623   -1.543227   -2.334791
H     -4.521897   -2.661342    0.271073
H      8.850222    1.323442   -1.648538
H     -7.820165    3.206703    0.341007
H     -6.250062   -1.584576    0.421216
H     -1.777507   -1.359504   -0.258658
H     12.798184    0.560374   -3.937888
H     -4.940213    4.728939   -0.303916
H     -4.917137    0.097850    4.142645
H     -8.848052    1.274583    2.488196
H     11.962814   -2.157908   -3.921820
H     -9.572346    7.337827   -0.191908
H     10.176499   -3.166675   -0.920623
H     -8.921509    5.015373   -3.180663
H      6.898283   -0.142548   -3.152814
H    -10.362737    3.299037    1.362270
H     -6.919638   -0.288488   -2.579438
