27

C      4.828940    0.456557   -1.002512
C      2.786300    1.152491    0.284524
C      2.829769   -1.012993   -0.600423
C      1.533379    0.902069    0.803956
C      1.580429   -1.281953   -0.090153
C     -5.087123    0.862407   -0.380859
C     -3.099362   -0.512100    0.441717
C      3.467525    0.193515   -0.434566
C     -3.974113   -0.036131   -0.699723
C      0.913438   -0.315497    0.624886
O     -0.795268    0.157610    2.561263
O     -0.743868   -2.088890    1.609486
O     -3.934150    1.392440   -0.938847
O     -1.801491   -0.173361    0.146479
S     -0.694180   -0.621537    1.297568
H      5.566981    0.004485   -0.309720
H      4.837732   -0.010829   -2.006728
H      4.977227    1.541806   -1.030555
H      3.222776    2.121158    0.455034
H      3.337368   -1.795360   -1.163262
H      0.995618    1.673602    1.377441
H      1.081503   -2.226671   -0.220222
H     -5.978306    0.959281   -1.036486
H     -5.297798    1.051875    0.692320
H     -3.162715   -1.625379    0.424082
H     -3.462092   -0.191639    1.419060
H     -3.928519   -0.576955   -1.661955
