172

C      9.178733    2.593611    2.915762
C      6.042666   -1.472213    0.340785
C     -5.330961    0.401074   -3.839549
C     -0.788151   -7.520671    1.170888
C     -2.922613   -6.022277    3.611530
C     -6.203022   -5.113800   -0.359361
C      3.711925    0.978273   -1.196256
C     -0.475903    2.238205   -1.390690
C      0.420313    4.636026    0.715830
C      1.808372    4.191891    0.889923
C      1.087830    0.500361    0.446100
C      2.454936   -0.023506    0.675418
C      9.340663    1.720539    0.576044
C     -1.925332    4.541298    0.263911
C     -2.929209    2.412320    0.703404
C      4.467882    2.994593    0.802237
C     12.465806   -0.511837   -3.298033
C    -10.037993    1.504961    3.312486
C      8.611031    0.231582    2.450808
C     -0.996868   -3.978855   -0.242939
C      9.485938    1.398958    2.036363
C      5.949994    0.040027    0.106381
C     -5.957576    1.314612   -2.810125
C     -0.758534   -6.386593    0.198131
C     -2.688968   -4.628369    3.150434
C     -5.557060   -4.005311    0.395889
C     -0.575857    3.851463    0.383499
C     -2.756655    3.772895    1.317284
C      1.989507    2.824659    0.271764
C      0.840079    1.940657    0.706909
C      3.207210    2.239282    0.929980
C      5.460691    1.952973    1.363530
C     11.147014   -0.912385   -2.658661
C     -9.954836    1.962799    1.898362
C     -1.288986   -2.744711    0.560176
C     -1.619264    1.598991    0.643617
C      8.422697    0.603905   -0.010341
C      4.859188    0.616288    0.994884
C     -7.425390    0.885618   -2.688147
C     10.610539   -2.066696   -3.460401
C    -11.091186    2.863732    1.545313
C      9.177741   -2.394438   -3.169328
C    -11.836608    2.339358    0.331513
C      8.379670   -1.094362   -2.995383
C    -10.874016    1.916652   -0.786115
C     -6.733128   -0.494800   -0.810518
C     -2.497253   -2.883183    1.421280
C     -7.670686    0.607409   -1.214472
C     -3.790210   -2.420219    0.790887
C     -3.552234   -1.172042   -0.056161
C      9.102948   -0.308107   -1.951547
C     -9.594450    1.392543   -0.245917
C     -5.302099   -0.129496   -1.146607
C     -2.177089   -0.638965    0.292104
C      3.572205    0.891727    0.309452
C     -0.484452    2.402465    0.140429
C      7.144624    0.735045    0.710890
O     13.128160    0.478836   -2.601634
O     -8.936748    0.737256    3.694666
O     -0.507868   -6.592510   -1.011730
O     -2.441662   -3.763484    4.030086
O     -6.201585   -3.588346    1.402431
O     -3.981144    4.355658    1.525234
O     -8.195851    1.959284   -3.114130
O     11.354132   -3.206547   -3.069164
O    -10.630812    4.172381    1.299173
O      8.673895   -3.171625   -4.193873
O    -12.642944    1.283258    0.684761
O      7.091404   -1.428147   -2.691302
O    -10.724295    3.059099   -1.592559
O     -7.049175   -1.680914   -1.435606
O     -1.005610   -5.086713    0.601392
O      7.312666    0.373908    2.044438
O     -5.329813    1.224661   -1.563405
O     -2.725206   -4.225406    1.834379
O     -4.336138   -3.466832    0.024080
O     10.275680    0.167771   -2.576204
O     -9.881091    0.857554    1.040315
O     -1.292335   -1.592387   -0.220742
O     -1.968590    0.579144   -0.286993
O      8.395626    0.731940   -1.382165
O     -8.995649    0.382463   -0.980271
O     -4.573008   -0.280518    0.016388
O      6.680657    2.075145    0.725765
H      8.270929    2.369165    3.550245
H      9.994807    2.817037    3.629035
H      9.015889    3.506124    2.318676
H      5.489942   -1.711625    1.281557
H      5.506102   -1.952946   -0.513073
H      7.074637   -1.831440    0.343114
H     -4.275868    0.169002   -3.631674
H     -5.950931   -0.525080   -4.007080
H     -5.331735    0.906066   -4.841450
H     -0.678423   -7.200094    2.205069
H      0.042364   -8.221627    0.947355
H     -1.734739   -8.094556    1.097029
H     -3.769347   -5.997280    4.328875
H     -2.012525   -6.350153    4.194927
H     -3.147869   -6.708438    2.795732
H     -6.032872   -6.062738    0.151028
H     -7.306108   -4.965438   -0.450626
H     -5.825214   -5.092757   -1.421792
H      3.915099   -0.075911   -1.535365
H      2.725146    1.224356   -1.638790
H      4.492568    1.686431   -1.484221
H     -1.108881    3.051567   -1.826785
H     -0.920915    1.270654   -1.692208
H      0.526096    2.264056   -1.818089
H      0.242359    5.726389    0.886221
H      2.090021    4.203531    1.962197
H      2.484527    4.923418    0.379065
H      0.696470    0.203158   -0.567835
H      0.429887   -0.058936    1.186504
H      2.557584   -0.957771    0.070190
H      2.581405   -0.334503    1.734622
H     10.284459    1.771751    0.028784
H      8.746154    2.645057    0.475263
H     -1.903629    5.573634    0.582144
H     -2.384595    4.346614   -0.701653
H     -3.262574    2.548181   -0.329155
H     -3.655278    1.876128    1.356772
H      4.493442    3.842304    1.503139
H      4.738259    3.253247   -0.223000
H     13.128965   -1.423967   -3.229679
H     12.311352   -0.329549   -4.360790
H    -10.015584    2.419765    3.975150
H    -10.993425    1.013888    3.563034
H      8.591284    0.274646    3.581030
H      9.078724   -0.748492    2.233128
H      0.056876   -3.872704   -0.630513
H     -1.724621   -4.048205   -1.079027
H     10.536582    1.105391    2.229672
H      5.865077    0.296338   -0.941279
H     -5.887506    2.346493   -3.177717
H     -2.205932    3.749344    2.281932
H      2.090541    2.969574   -0.799319
H      0.770846    2.069580    1.812299
H      2.964906    2.040743    1.985177
H      5.548179    2.077762    2.478758
H     11.399829   -1.295718   -1.634555
H     -9.004067    2.528937    1.766516
H     -0.386077   -2.612867    1.235167
H     -1.485526    1.183955    1.666299
H      8.948332   -0.320869    0.258798
H      4.678866   -0.023888    1.882376
H     -7.640481   -0.010833   -3.296307
H     10.820127   -1.947499   -4.532973
H    -11.835814    2.940306    2.354928
H      9.075292   -2.990075   -2.221397
H    -12.496625    3.158412   -0.026555
H      8.466907   -0.575150   -4.000110
H    -11.356456    1.138596   -1.425666
H     -6.843166   -0.698570    0.292790
H     -2.300893   -2.333017    2.378874
H     -7.410645    1.578028   -0.700387
H     -4.484677   -2.204052    1.625240
H     -3.489246   -1.563488   -1.104840
H      9.484905   -1.013607   -1.175708
H     -8.829512    2.186608   -0.046814
H     -4.963268   -0.773944   -1.964699
H     -2.025352   -0.621809    1.401442
H     12.875932    1.351254   -3.029274
H     -8.109093    1.285044    3.654639
H     -4.760267    3.834218    1.228029
H     -8.866841    1.688472   -3.795152
H     12.024319   -2.986345   -2.369603
H    -11.437267    4.691050    0.994119
H      9.442383   -3.743435   -4.516509
H    -12.158133    0.403630    0.694773
H      7.019532   -2.360422   -2.330209
H     -9.906163    3.578903   -1.308133
H     -6.296067   -1.977892   -2.037211
