41

C     -6.808184   -0.482969    0.270644
C     -6.278474   -1.422301   -0.597547
C      6.807018    0.105434    0.778599
C      2.274659    0.641526   -1.065798
C     -5.983073    0.415332    0.909954
C     -4.906646   -1.398730   -0.773473
C      6.333110   -0.801675   -0.154132
C      0.876679    0.486548   -1.512778
C      5.903834    0.894230    1.457397
C      2.727267   -0.283045    0.020056
C     -0.450274   -0.158598    0.365977
C     -2.337188    1.251519    1.269666
C     -1.904136   -0.098815    0.808455
C     -4.609972    0.417062    0.717224
C     -4.058719   -0.517363   -0.149832
C      4.987573   -0.913180   -0.397742
N     -0.234514    0.713884   -0.707599
N      4.584124    0.762647    1.196972
N      4.155737   -0.101145    0.311668
O      4.529560   -1.732790   -1.241623
O     -3.762720    1.305499    1.345508
O     -2.693370   -0.499775   -0.329858
H     -7.900246   -0.469774    0.439087
H     -6.874413   -2.141314   -1.114814
H      7.876448    0.171932    0.945102
H      2.995617    0.528938   -1.936696
H      2.398065    1.705721   -0.703252
H     -6.404407    1.155150    1.592427
H     -4.419898   -2.119043   -1.450167
H      7.030578   -1.421835   -0.691699
H      0.758092    1.150780   -2.456048
H      0.770942   -0.571836   -1.999697
H      6.233275    1.599516    2.173461
H      2.214145   -0.182110    0.979035
H      2.563369   -1.353820   -0.306501
H     -0.205244   -1.205844    0.131341
H      0.120362    0.230596    1.267925
H     -1.917587    2.100125    0.724051
H     -1.991067    1.348626    2.330540
H     -2.061780   -0.839953    1.630021
H     -0.338545    1.730850   -0.470186
