34

C     -4.947319   -1.539155   -0.303280
C      5.458180   -0.114087    0.042154
C      4.684342    0.033856    1.168571
C      4.882848   -0.256736   -1.188250
C      3.311913    0.039498    1.064891
C      3.490854   -0.248768   -1.275042
C     -3.567382    0.992741    0.338441
C     -1.504246    2.104119    0.649577
C      0.652147   -1.429792    0.134330
C      2.693047   -0.102594   -0.165701
C     -2.882824    2.153407    0.633648
C     -0.787212   -1.422614   -0.190952
C      1.238353   -0.103551   -0.329430
C     -2.923011   -0.194858    0.063575
C     -0.796028    0.940000    0.381697
C     -1.536064   -0.187789    0.093334
O     -3.574895    3.343317    0.908113
O     -1.393348   -2.406441   -0.691478
O     -3.564365   -1.369523   -0.234146
O      0.600678    0.918274    0.404680
H     -5.292199   -1.332920   -1.327532
H     -5.285564   -2.562708   -0.046308
H     -5.448632   -0.867038    0.441315
H      6.547726   -0.120586    0.107963
H      5.192313    0.145545    2.138208
H      5.491967   -0.373591   -2.078148
H      2.682881    0.152480    1.920887
H      3.095173   -0.366489   -2.281889
H     -4.667744    1.013716    0.321281
H     -0.955617    3.002379    0.878432
H      1.107489   -2.282462   -0.407657
H      0.852243   -1.584237    1.220448
H      0.966688    0.028251   -1.382230
H     -3.822392    3.998359    0.184916
