16

C      1.817386   -0.034659   -0.480909
C      1.300306   -1.274171    0.140756
C      1.023110    0.977925   -0.638682
C      0.059071   -1.325955    0.517940
C     -0.360539    0.985724   -0.243736
C     -0.873556   -0.236220    0.371054
O     -0.689086    2.145847    0.510138
O     -2.099786   -0.659784   -0.206762
H      2.856969    0.033462   -0.806038
H      2.018720   -2.084569    0.242975
H      1.419367    1.900499   -1.104515
H     -0.263488   -2.284132    0.976113
H     -0.951601    1.121761   -1.231265
H     -1.205442    0.045706    1.445899
H     -1.686019    2.231997    0.390339
H     -2.365413   -1.543432    0.116692
