53

C      3.632260   -1.442646    3.097586
C      3.721752   -2.303650    2.011831
C      3.032791   -0.221004    2.912025
C      4.937250    2.084398   -2.828155
C      5.087355    0.715326   -2.752855
C      3.843925    2.617137   -2.221505
C      3.220117   -1.937958    0.779485
C      2.537503    0.121638    1.665661
C      4.181478   -0.083485   -2.098337
C     -4.373758   -1.385032    1.761278
C     -4.349488    0.922276    0.996252
C      1.769144    2.516336   -0.938374
C     -5.050112   -1.942355    0.499583
C     -5.501936    0.401336    0.164346
C      0.550008    1.670073   -0.845985
C     -3.840229   -0.662357   -1.091936
C      2.916856    1.821632   -1.554487
C     -3.446458   -0.284295    1.286677
C      2.614617   -0.715404    0.574245
C      3.067533    0.467142   -1.481290
C     -2.803208   -0.762084    0.007341
C      2.076338   -0.347195   -0.769599
C     -0.390325   -0.523967   -0.382760
N     -5.144826   -0.863699   -0.487078
N      0.777174    0.269754   -0.671729
O     -0.216049   -1.752282   -0.226381
O     -1.649615   -0.009251   -0.274164
H      4.032982   -1.741559    4.070925
H      4.199323   -3.260361    2.188587
H      2.945233    0.477074    3.736589
H      5.638196    2.732436   -3.338669
H      5.974770    0.300139   -3.247620
H      3.696506    3.695620   -2.263529
H      3.329736   -2.672644   -0.022345
H      2.065288    1.110424    1.566009
H      4.303863   -1.147712   -2.043445
H     -3.814711   -2.173073    2.277148
H     -5.180893   -0.978951    2.421328
H     -3.750212    1.681330    0.455503
H     -4.715937    1.286354    1.975027
H      1.986311    2.959659    0.038719
H      1.515987    3.388360   -1.611738
H     -4.359009   -2.732025    0.126361
H     -6.041739   -2.307983    0.776315
H     -6.429958    0.282674    0.740245
H     -5.636301    1.126167   -0.678185
H     -0.136477    2.014398   -0.018111
H     -0.070782    1.780609   -1.782892
H     -3.793167    0.398721   -1.462523
H     -3.671733   -1.378343   -1.916089
H     -2.740779   -0.072567    2.090418
H     -2.529615   -1.828395    0.126446
H      1.983021   -1.310737   -1.336152
