40

C     -5.713015    0.476989    0.012801
C     -4.887581    1.575384    0.147317
C      4.460325   -2.034699   -0.343403
C      5.293409   -0.974834   -0.063461
C     -5.168596   -0.763254   -0.145996
C     -3.518004    1.453382    0.125538
C      3.088033   -1.884360   -0.321398
C      4.780890    0.262449    0.248141
C     -3.262433   -2.164882   -0.331469
C     -1.912346   -2.359200   -0.362204
C      0.258081   -1.473486   -0.258315
C     -0.765960    1.111832    0.067314
C     -3.780088   -0.909908   -0.170971
C     -1.095158   -1.253334   -0.226678
C     -2.955783    0.218221   -0.032706
C      2.574928   -0.637858   -0.009801
C      3.399066    0.425047    0.275734
C     -1.597245    0.034528   -0.062191
C      1.117617   -0.413905   -0.128099
C      0.620891    0.862603    0.028633
C      2.805090    1.692867    0.737542
C      1.557563    1.995888    0.021373
O      2.446545    1.463693    2.100657
O      1.916941    2.158392   -1.351193
H     -6.790032    0.625561    0.036562
H     -5.362685    2.554954    0.272946
H      4.841568   -3.021751   -0.590361
H      6.374538   -1.128868   -0.091844
H     -5.813022   -1.636621   -0.253001
H     -2.931125    2.325662    0.232746
H      2.456485   -2.717590   -0.543439
H      5.381902    1.117986    0.473309
H     -3.951021   -3.007048   -0.434364
H     -1.506371   -3.366728   -0.491011
H      0.619007   -2.473293   -0.382376
H     -1.053838    2.120758    0.194509
H      3.552741    2.530286    0.706927
H      1.065750    2.945136    0.358836
H      1.524733    1.160671    2.146724
H      1.928200    3.109328   -1.593327
