52

C     -3.806597    1.716443    0.965653
C      3.716469   -1.107460   -0.145639
C     -3.018102   -0.861511   -0.295736
C      2.791790   -2.045917    0.226791
C     -2.196463   -1.642436    0.650182
C      2.053262    0.534164   -0.441333
C     -1.189706    0.880264   -0.191868
C      3.389626    0.204840   -0.490832
C     -2.545591    0.485868   -0.690936
C      1.081329   -0.387917   -0.068471
C     -0.291100   -0.258308    0.040615
C      1.453518   -1.677432    0.265207
C     -0.740511   -1.500664    0.449958
C      4.410423    1.163888   -0.880393
N      4.076111    2.363728   -1.188788
N     -3.503964    1.542495   -0.410007
N      0.315826   -2.326211    0.576327
O      5.736896    0.802373   -0.923356
C     -0.506160   -0.918807   -0.550277
C      0.447561   -0.896548    0.626578
C     -1.331041    0.297417   -0.593844
C      1.372873    0.255606    0.570907
O     -2.171026    0.413094   -1.524555
O     -1.249051    1.335291    0.325208
O      2.215930    0.389937    1.490107
O      1.371342    1.205974   -0.437985
O     -0.002702    0.375663   -0.000000
H     -3.152049    1.197537    1.671711
H     -4.849513    1.374380    1.173434
H     -3.818213    2.826377    1.171666
H      4.757017   -1.392928   -0.177302
H     -4.032378   -0.718802    0.195408
H     -3.265561   -1.518644   -1.179540
H      3.021906   -3.062790    0.498328
H     -2.419389   -2.740238    0.497801
H     -2.497263   -1.443872    1.702082
H      1.761515    1.543998   -0.702422
H     -1.268964    1.437054    0.772605
H     -0.688227    1.587309   -0.889333
H     -2.469177    0.483296   -1.820596
H      4.744031    3.108624   -1.477591
H     -4.372002    1.283182   -0.940487
H      0.308933   -3.329829    0.865863
H      6.506120    1.479139   -0.998029
H     -1.192997   -1.780858   -0.418792
H      0.030312   -1.005780   -1.511922
H     -0.137389   -0.798143    1.562862
H      0.972381   -1.867391    0.677889
H     -2.120979    1.819615    0.508031
H      2.298243    1.550592   -0.724206
H     -0.807715   -0.188796   -0.000000
H      0.810417   -0.186867    0.000000
