40

C      5.548484   -1.473529   -0.572589
C      4.547390   -2.408293   -0.702679
C     -3.996573    2.850323    0.556598
C     -4.991719    1.913132    0.425812
C      5.240605   -0.150358   -0.324242
C      3.240248   -1.976745   -0.576767
C     -2.658688    2.438428    0.433117
C     -4.713517    0.585640    0.177806
C      3.676120    1.628352    0.052433
C      2.370164    2.061787    0.178634
C      0.082206    1.581501    0.177777
C      0.565746   -1.101337   -0.320508
C      3.940479    0.298363   -0.195512
C      1.360031    1.125423    0.048591
C      2.932531   -0.654977   -0.328672
C     -2.381562    1.134368    0.189349
C     -3.380753    0.180343    0.055697
C      1.611866   -0.225252   -0.202589
C     -0.979955    0.693775    0.058363
C     -0.749005   -0.636523   -0.188383
C     -3.178515   -1.238775   -0.205909
C     -1.783050   -1.678329   -0.336425
O     -3.933065   -1.565095   -1.357040
O     -1.476506   -2.708274    0.570155
H      6.586518   -1.795474   -0.668847
H      4.824568   -3.435372   -0.896868
H     -4.175124    3.895987    0.750419
H     -6.018634    2.281452    0.529959
H      6.033294    0.579884   -0.223014
H      2.492626   -2.738971   -0.685404
H     -1.879212    3.177537    0.536437
H     -5.532849   -0.099144    0.085656
H      4.463625    2.362536    0.154562
H      2.137577    3.086149    0.370688
H     -0.097658    2.627429    0.371727
H      0.763356   -2.135018   -0.512896
H     -3.662144   -1.807386    0.641679
H     -1.638781   -2.138450   -1.351418
H     -3.599586   -0.933601   -2.062342
H     -1.590539   -3.601508    0.180956
