27

C      3.012496    0.313131    0.311533
C     -1.718891   -0.167368    0.436953
C     -0.856823    1.080050    0.605572
C     -0.870003   -1.376879    0.300650
C     -0.075662    1.184875   -0.712408
C      0.262168   -1.263500   -0.659365
C      0.937496    0.079437   -0.668570
O     -2.567068   -0.343187    1.531114
O     -1.598974    2.223056    0.728050
O     -0.386737   -1.820229    1.547136
O      0.494531    2.423480   -0.860835
O     -0.113077   -1.667940   -1.933681
O      1.634473    0.194185    0.544624
H      3.494485    0.398748    1.304697
H      3.332059   -0.654762   -0.143551
H      3.262512    1.168925   -0.324467
H     -2.315815   -0.026272   -0.484751
H     -0.120193    0.926466    1.420265
H     -1.529984   -2.216981   -0.065474
H     -0.823842    0.986781   -1.510900
H      1.049586   -2.004574   -0.327358
H      1.613237    0.106615   -1.541428
H     -3.336497   -0.884285    1.220439
H     -1.748603    2.531436    1.639706
H     -0.186968   -2.796490    1.522239
H      0.126406    2.850474   -1.695023
H     -0.970312   -1.245193   -2.185167
