31

C      0.899836    2.377424   -0.674945
C      3.605631   -1.893977   -0.477997
C     -2.637311   -1.618332    0.037012
C     -1.147564   -1.764937    0.268877
C     -2.819178   -0.121725    0.139897
C     -1.306484    1.653878    0.017872
C     -0.602950   -0.535904   -0.435996
C      0.477783    0.122131    0.389438
C      1.828044   -0.247086   -0.042522
C      0.169494    1.570296    0.339564
N     -1.679898    0.388665   -0.560432
O      2.618140    0.649230   -0.422663
O      0.362201    2.183132    1.593719
O      2.291463   -1.550760   -0.055867
H      1.838917    2.844042   -0.307110
H      1.056273    1.873488   -1.648124
H      0.237723    3.260531   -0.922941
H      3.605019   -2.641870   -1.291576
H      4.134148   -2.340288    0.390279
H      4.147685   -0.969621   -0.755809
H     -2.946305   -1.942255   -0.963557
H     -3.220462   -2.112878    0.842287
H     -0.974198   -1.643337    1.358627
H     -0.737783   -2.697800   -0.143230
H     -2.816218    0.171916    1.197013
H     -3.772633    0.215731   -0.311824
H     -1.524031    2.443828   -0.748897
H     -1.907051    1.889307    0.919501
H     -0.219350   -0.872349   -1.422023
H      0.295481   -0.222347    1.450498
H      0.743578    1.531869    2.240929
