14

C     -2.214188   -0.337424   -0.629122
C      2.639962    0.146644   -0.031509
C     -1.178650    0.428167    0.148365
C      0.199319   -0.019660   -0.256494
Cl    -1.352061    0.260170    1.894067
O      0.318109   -0.908580   -1.126258
O      1.326831    0.518155    0.300043
H     -2.815841   -0.940362    0.093249
H     -1.718111   -1.054586   -1.294855
H     -2.894997    0.364507   -1.177259
H      3.220201    0.945549   -0.516347
H      2.565416   -0.726398   -0.724808
H      3.143852   -0.180243    0.898516
H     -1.239843    1.504059   -0.114880
