10

C     -1.210056   -0.085760   -0.191611
C      1.341166   -0.202231    0.265681
C      0.133677    0.547085    0.004225
Cl    -1.233189   -1.204888   -1.572534
O      0.630337    0.288333    1.349998
H     -1.979043    0.695384   -0.410316
H     -1.591438   -0.638106    0.689658
H      2.310435    0.280193    0.096444
H      1.357988   -1.295979    0.074275
H      0.240122    1.615970   -0.305821
