59

C      3.895510    1.083807    0.439441
C     -3.333797   -3.650758    1.610567
C     -0.060654    3.691147   -0.498729
C      4.985418   -0.678018   -2.899655
C     -3.253498   -0.195088   -2.619718
C     -3.522044   -1.500021   -2.324999
C     -2.584801    0.575721   -1.676509
C     -3.123854   -2.003292   -1.111505
C     -2.371778    1.613873    1.381150
C     -1.947906    2.957126    0.799256
C      0.604693    0.821711   -0.572698
C      1.350258   -0.590331    2.345018
C      3.131767   -0.129494    0.932500
C     -2.322494   -2.614658    1.956406
C      0.900918   -0.557253   -0.126239
C      0.405116   -0.944909    1.226695
C     -2.188156    0.076205   -0.469365
C     -2.460562   -1.251044   -0.166200
C     -0.315837    1.527346    0.328494
C      2.406157   -0.858598   -0.134844
C     -1.002924   -0.502829    1.519745
C      2.990469   -0.571728   -1.462326
C     -1.469627    0.641912    0.687786
N     -1.051802    2.624364   -0.311993
N     -1.956868   -1.532867    1.142940
O     -1.771116   -2.771008    3.105004
O      2.325403   -0.045554   -2.381957
O      4.307855   -0.894301   -1.692129
O      2.353422    0.274289    1.991952
H      3.390985    2.028449    0.794280
H      3.950372    1.162163   -0.644663
H      4.924417    1.120428    0.880713
H     -2.922874   -4.430775    0.939530
H     -4.274944   -3.184166    1.237816
H     -3.657923   -4.214300    2.522775
H     -0.552990    4.631367   -0.749858
H      0.589009    3.335351   -1.334676
H      0.600781    3.742384    0.391329
H      4.487904    0.104558   -3.532031
H      6.012698   -0.345350   -2.687251
H      5.049527   -1.646602   -3.429922
H     -3.567594    0.201268   -3.575930
H     -4.042200   -2.095199   -3.062284
H     -2.403772    1.612570   -1.981570
H     -3.353226   -3.043808   -0.925004
H     -2.132286    1.640240    2.466732
H     -3.444742    1.434807    1.212950
H     -2.803559    3.561627    0.465955
H     -1.356987    3.555056    1.512506
H      1.564095    1.410234   -0.666419
H      0.174360    0.859584   -1.616936
H      1.817326   -1.468660    2.836167
H      0.746712   -0.090649    3.139266
H      3.906633   -0.831495    1.354856
H      0.480121   -1.257818   -0.890806
H      0.364682   -2.069544    1.229675
H      0.121129    1.964442    1.231064
H      2.498653   -1.969736    0.012429
H     -1.085573   -0.312178    2.609680
