21

C     -1.065850   -1.545356    0.700578
C     -1.474532    1.848576   -0.894545
C      2.792185   -0.907103   -0.098040
C     -1.711470   -0.441066   -0.108434
C     -0.789182    0.762416   -0.070341
O      1.443654    0.357296    1.803995
O      2.531654    1.715943    0.084167
O      0.397278    0.358893   -0.620392
S      1.716451    0.463244    0.351296
H     -1.772140   -2.407793    0.768263
H     -0.857764   -1.144991    1.710666
H     -0.117871   -1.831922    0.214578
H     -1.652705    1.427763   -1.895643
H     -2.430849    2.072576   -0.380624
H     -0.855354    2.752703   -0.991697
H      3.714419   -0.851557    0.481852
H      2.992860   -0.862471   -1.206380
H      2.279493   -1.869001    0.109481
H     -2.726509   -0.205039    0.239156
H     -1.707772   -0.805507   -1.174301
H     -0.705997    1.112398    0.976364
