13

C     -0.742215    1.051358   -0.214160
C      0.863646   -0.628432    0.499672
C     -0.195232   -0.324891   -0.560871
Cl    -1.430845    0.912755    1.433727
O      1.828353    0.372805    0.382857
O     -1.178306   -1.300273   -0.479854
H      0.108559    1.746768   -0.134749
H     -1.517607    1.335987   -0.917822
H      1.295380   -1.621722    0.396916
H      0.349433   -0.463441    1.489467
H      0.223163   -0.301558   -1.573419
H      2.266586    0.323510   -0.513202
H     -1.870915   -1.102866    0.191438
