17

C      0.371916    1.502904   -0.044469
C     -0.912915    1.523017    0.263048
C      0.949977    0.257711   -0.615916
C     -1.767913    0.327614    0.044173
C      0.407840   -0.895108    0.214480
C     -1.087341   -0.944428   -0.025275
O      2.323065    0.271673   -0.679859
O      1.032687   -2.088387   -0.046621
O     -1.584883   -0.330592   -1.184867
H      1.032335    2.348325    0.097283
H     -1.315686    2.439840    0.678476
H      0.576836    0.170575   -1.677147
H     -2.816909    0.404550    0.375864
H      0.529789   -0.593865    1.295278
H     -1.630561   -1.846752    0.339633
H      2.789777    0.033796    0.138530
H      1.101983   -2.580873    0.827390
