41

C     -4.795899   -1.402866    0.321030
C     -4.028177   -2.534737    0.304152
C     -2.389767    3.509527   -0.342986
C     -1.053192    3.603455   -0.526009
C     -4.199108   -0.170225    0.150593
C     -2.970119    2.252634   -0.182206
C     -2.642628   -2.452694    0.115441
C     -0.244903    2.444471   -0.555607
C      0.050017   -2.323557   -0.251288
C      1.391853   -2.274400   -0.433706
C     -2.845042   -0.103995   -0.032737
C     -2.214116    1.121056   -0.206838
C     -2.047969   -1.224424   -0.054397
C     -0.820176    1.223911   -0.398720
C     -0.682348   -1.163819   -0.240108
C      2.009142   -1.080012   -0.605627
C     -0.026526    0.070359   -0.420008
C      1.323799    0.137337   -0.606890
C      3.502673   -1.172984   -0.767019
C      3.992413   -0.046837    0.147211
C      2.093599    1.319669   -0.849382
C      3.603648    1.187116   -0.577508
O      3.948224   -2.369708   -0.241609
O      5.343971   -0.059422    0.344904
O      2.809499    2.056024    0.070106
H     -5.877429   -1.503946    0.471102
H     -4.510862   -3.497418    0.439437
H     -3.034255    4.366403   -0.315224
H     -0.531152    4.542562   -0.657760
H     -4.802025    0.691458    0.165137
H     -4.042152    2.216061   -0.037761
H     -2.159505   -3.405243    0.122762
H      0.758961    2.620173   -0.688909
H     -0.437244   -3.286328   -0.114652
H      1.937798   -3.228372   -0.434786
H      3.821982   -1.006040   -1.808366
H      3.488064   -0.189790    1.114972
H      2.050302    1.789731   -1.913174
H      4.293672    1.554876   -1.365501
H      4.046905   -2.299302    0.754977
H      5.888067    0.089299   -0.449650
