36

C      4.133419   -1.325113    0.046837
C      0.012414    2.251806   -0.180193
C     -3.315505   -1.467088    0.492403
C     -2.758429    1.179657    0.742397
C     -2.725402    1.189233   -0.774255
C      1.642971   -2.072843    0.282828
C      2.840207    1.334468   -0.199964
C      2.675001   -1.083769    0.107155
C     -0.317034    0.814790   -0.003658
C      0.449055   -1.507078    0.281293
C      2.121568    0.133809   -0.007711
C      0.679475   -0.065027    0.094696
C     -0.911613   -1.946917    0.436759
C     -1.964355   -1.087549   -0.070057
C     -1.753606    0.382714    0.024072
O      2.860034    2.397329    0.586215
O     -1.082948   -3.058822    1.008596
O     -2.065369   -1.373213   -1.458220
H      4.429867   -2.290826    0.466529
H      4.518992   -1.185694   -0.998905
H      4.694513   -0.548305    0.644999
H     -1.009938    2.743793   -0.269391
H      0.481089    2.546181   -1.092043
H      0.297739    2.751486    0.771170
H     -3.475997   -2.546289    0.216993
H     -3.364582   -1.384258    1.581838
H     -4.103581   -0.899053   -0.003136
H     -3.599084    0.658963    1.248743
H     -2.550941    2.171586    1.181132
H     -3.608106    0.680772   -1.238549
H     -2.368456    2.015362   -1.361437
H      1.786397   -3.138187    0.402583
H      3.953635    1.083896   -0.328476
H      2.650808    1.718244   -1.260895
H      2.720528    3.283206    0.162381
H     -1.972766   -2.357263   -1.532730
