68

C     -1.750023    1.081697   -1.952346
C      6.754000   -1.396138    0.987797
C     -0.377202    0.988427   -1.700696
C      8.068043   -1.031519    0.918465
C    -11.037072   -1.361996    0.312461
C     -0.095499   -1.257806    1.102056
C      8.193628    2.131433   -0.864592
C    -10.640502   -0.156834   -0.003238
C      1.368029   -1.161076    0.669451
C      9.570296    2.077447   -0.288218
C     -8.618767   -2.129763    0.220240
C      5.026510    1.151536   -0.638350
C     -3.272965   -0.958573    0.426922
C     -8.836776    1.613138    0.149758
C     -7.210422    0.605557   -1.482888
C     -8.684138    1.067784   -1.256290
C    -10.047605   -2.423152    0.446342
C     -0.797880   -0.487928    0.085854
C      7.524948    0.948615   -0.261969
C     -2.176874   -0.393351   -0.167957
C      6.194344    0.579836   -0.191991
C     -2.643781    0.389934   -1.184116
C      5.819743   -0.578855    0.426278
C      3.935053    0.340656   -0.292079
C     -4.439444   -0.518672   -0.230345
C      0.108065    0.196183   -0.671034
C      8.498347    0.127814    0.305700
C     -8.298057   -0.885751   -0.097992
C      2.581668    0.695235   -0.614182
C     -5.789536   -0.884671    0.137800
C     11.029580    0.078241    0.275210
C     -9.255836    0.223504   -0.231764
N     11.904090    0.089723   -0.673798
N      4.456019   -0.689252    0.346069
N     -4.010666    0.296721   -1.201164
N      1.460530   -0.045956   -0.237477
N      9.774844    0.706637    0.112285
N     -6.974791   -0.383356   -0.448610
O    -10.341462   -3.608660    0.751311
O      2.339707    1.764041   -1.297850
O     -5.886846   -1.746486    1.086291
O     11.376103   -0.573702    1.451259
H     -2.112418    1.712069   -2.769042
H      6.444998   -2.319313    1.479276
H      0.316218    1.539084   -2.319963
H      8.830364   -1.684774    1.368903
H    -12.095349   -1.613017    0.483226
H     -0.374052   -2.346732    1.084323
H     -0.237978   -0.888859    2.139926
H      7.633374    3.026975   -0.548901
H      8.218913    2.045377   -1.988607
H    -11.397880    0.615536   -0.102049
H      1.733642   -2.098842    0.266497
H      1.951254   -0.916442    1.596920
H      9.635940    2.782957    0.566173
H     10.287855    2.393582   -1.099671
H     -7.890569   -2.933468    0.323827
H      4.958318    2.084945   -1.175147
H     -3.243346   -1.624634    1.255202
H     -9.632588    2.337606    0.371646
H     -7.965477    1.669636    0.817505
H     -6.575727    1.515673   -1.377673
H     -7.195815    0.149598   -2.469958
H     -9.199693    1.537984   -2.088435
H     11.678494    0.577786   -1.589838
H      3.933856   -1.523343    0.751008
H     -4.579660    0.803960   -1.910276
H     12.079921   -1.324008    1.443838
