41

C     -4.646633   -1.619375    0.117442
C     -3.880837   -2.741316    0.214563
C     -2.444068    3.336039   -0.647900
C     -1.103277    3.492415   -0.756068
C     -4.090594   -0.361386   -0.084539
C     -2.984562    2.077779   -0.462363
C     -2.490134   -2.600933    0.104564
C     -0.235544    2.383537   -0.682687
C      0.206640   -2.326868   -0.114202
C      1.569422   -2.270668   -0.216415
C     -2.728361   -0.256072   -0.187960
C     -2.163790    1.001134   -0.389872
C     -1.929153   -1.362528   -0.095180
C     -0.762799    1.142334   -0.501340
C     -0.547281   -1.215933   -0.207338
C      2.143943   -1.050870   -0.417292
C      0.067390    0.036624   -0.414715
C      1.431198    0.139598   -0.525781
C      3.658082   -1.097541   -0.482478
C      4.050910    0.115373    0.355012
C      2.152426    1.352440   -0.797824
C      3.655221    1.279334   -0.476519
O      4.031307   -0.910174   -1.785527
O      3.374911    0.015240    1.554494
O      2.813648    2.161450    0.088933
H     -5.745673   -1.650864    0.193905
H     -4.333819   -3.723919    0.373595
H     -3.121982    4.192197   -0.704495
H     -0.637105    4.468770   -0.903044
H     -4.776796    0.497702   -0.153525
H     -4.037826    2.012137   -0.383813
H     -1.910334   -3.520599    0.187452
H      0.758393    2.611799   -0.757895
H     -0.240913   -3.295739    0.044011
H      2.162979   -3.177719   -0.138078
H      4.061038   -2.004089   -0.029429
H      5.118219    0.179912    0.547541
H      2.122287    1.770592   -1.882013
H      4.362360    1.565163   -1.285028
H      3.288716   -1.194448   -2.373410
H      3.782393    0.549472    2.273138
