68

C      2.628095    1.626539   -0.476971
C     -4.495328    2.079984    1.343382
C      2.701061    3.003783   -0.490125
C     -4.916982    3.030254    2.249611
C      4.060172    1.528089   -2.340356
C     -2.248663    2.481728    1.880693
C     -2.643343   -3.592200   -2.247749
C     -4.219406   -2.355465   -1.035423
C      3.786622   -2.500964    0.188130
C      0.615268   -2.925726    2.220166
C      3.307705    0.849199   -1.404533
C     -3.164699    1.775342    1.128836
C     -3.954068   -3.410044   -1.873625
C      2.383313   -2.424193    0.667541
C      3.458216    3.658851   -1.433441
C     -3.977486    3.730775    2.997191
C      1.952901   -3.037352    1.822161
C      4.144620    2.918027   -2.367628
C     -2.661257    3.440421    2.795796
C     -1.632437   -2.769946   -1.814839
C     -0.300651   -2.213255    1.486185
C      4.160474   -1.125857   -0.321249
C     -3.239605   -1.494382   -0.568000
C     -1.945870   -1.703446   -0.958903
C      0.124628   -1.597275    0.328654
C     -0.872113   -0.802314   -0.473139
C     -1.319145    0.413247    0.242926
C      3.231791   -0.643652   -1.395116
C     -2.764960    0.741483    0.140950
C      1.441695   -1.703274   -0.068576
O     -4.956000   -4.256131   -2.325855
O      3.543160    5.061251   -1.460646
O     -4.346585    4.702737    3.928078
O      2.821891   -3.772048    2.610271
O      4.916456    3.579906   -3.329663
O     -1.700662    4.127611    3.531607
O     -0.306387   -2.959106   -2.196947
O     -1.610978   -2.142350    1.936839
O      5.452410   -1.099233   -0.831873
O     -0.624566    1.513612   -0.319179
O     -3.581891   -0.430844    0.290343
O      1.909766   -1.096922   -1.225506
H      2.033229    1.115847    0.264482
H     -5.224777    1.535836    0.762664
H      2.168754    3.599981    0.235511
H     -5.955142    3.264172    2.413271
H      4.599614    0.928379   -3.075566
H     -1.200888    2.316723    1.786082
H     -2.344601   -4.411554   -2.915959
H     -5.252808   -2.156927   -0.696782
H      4.471200   -2.729077    1.007626
H      3.923435   -3.265964   -0.595200
H      0.275802   -3.405978    3.126140
H      4.125628   -0.434800    0.548260
H     -0.301829   -0.531452   -1.424472
H     -1.081149    0.335565    1.333408
H      3.596548   -1.015937   -2.366881
H     -2.951225    1.204072   -0.870768
H     -5.189242   -5.083499   -1.789639
H      4.090819    5.549451   -2.142319
H     -5.338531    4.873218    4.032214
H      3.782910   -3.941629    2.462263
H      5.434920    3.095907   -4.030783
H     -1.909740    4.826126    4.204169
H     -0.097882   -3.729410   -2.811784
H     -1.903225   -2.600435    2.787097
H      5.475591   -0.913090   -1.810102
H     -0.384574    1.367618   -1.247232
