68

C     -3.943648    1.689403    0.128634
C      4.560097    0.846643    0.136376
C     -4.610826    2.860702   -0.154952
C      5.775407    0.957468    0.761945
C     -5.269921    0.514724   -1.412308
C      3.930651    3.000127    0.845840
C      2.006979   -2.830332   -2.609873
C      3.199677   -0.836422   -3.006179
C     -3.303758   -2.342658    1.747284
C      0.324003   -2.670320    2.409553
C     -4.253628    0.497897   -0.487305
C      3.630537    1.853579    0.168369
C      3.005960   -2.168923   -3.291246
C     -1.843288   -2.127861    1.614760
C     -5.620423    2.843057   -1.083454
C      6.095881    2.104218    1.449188
C     -1.037018   -2.850340    2.498074
C     -5.963518    1.673560   -1.723643
C      5.172507    3.136725    1.495904
C      1.218668   -2.190106   -1.669328
C      0.865411   -1.794763    1.466774
C     -4.159855   -1.398610    0.997645
C      2.418348   -0.160822   -2.059673
C      1.428923   -0.852828   -1.396567
C      0.065522   -1.090316    0.603931
C      0.626459   -0.151144   -0.394901
C      1.333535    0.957097    0.309382
C     -3.555442   -0.779778   -0.202549
C      2.331781    1.712066   -0.508845
C     -1.323470   -1.268865    0.688597
O      3.802319   -2.827790   -4.245379
O     -6.296113    4.035012   -1.369228
O      7.346508    2.217396    2.092502
O     -1.589781   -3.732685    3.446042
O     -6.991099    1.711460   -2.653274
O      5.463477    4.301146    2.177806
O      0.210157   -2.844496   -0.980407
O      2.244212   -1.667719    1.439573
O     -4.639075   -0.358559    1.826388
O      0.366537    1.849322    0.771060
O      2.603066    1.158024   -1.773061
O     -2.168424   -0.581964   -0.158342
H     -3.143005    1.665341    0.854030
H      4.307783   -0.077643   -0.414765
H     -4.355779    3.799467    0.339615
H      6.479234    0.157200    0.719920
H     -5.586640   -0.378125   -1.950985
H      3.256287    3.835819    0.917965
H      1.816784   -3.880506   -2.799955
H      3.971472   -0.297985   -3.523598
H     -3.521159   -2.173498    2.846036
H     -3.572721   -3.402331    1.558141
H      0.968035   -3.232233    3.097924
H     -5.095553   -1.944191    0.673255
H     -0.224533    0.333486   -0.960833
H      1.869666    0.617426    1.240622
H     -3.731535   -1.449520   -1.095999
H      1.892830    2.736030   -0.744050
H      4.662426   -3.278623   -3.937124
H     -7.029300    4.024173   -2.042951
H      7.636254    3.016882    2.602689
H     -2.590892   -3.842933    3.477290
H     -7.271963    0.871973   -3.145222
H      6.300905    4.493384    2.662393
H      0.075273   -3.829548   -1.171675
H      2.850465   -2.162539    2.048952
H     -3.933846   -0.160352    2.496070
H      0.512184    2.166519    1.676808
