35

C      5.937471   -0.439353    0.994550
C     -4.713546   -0.011733    1.610762
C     -3.351475   -0.126010    1.722765
C     -5.311792    0.058678    0.394195
C      1.717017   -0.121916    0.792924
C      3.100216   -0.224017    0.851706
C      1.862021    0.500266   -1.467113
C     -1.081604   -0.298257    0.755641
C      1.065122    0.242322   -0.366714
C     -2.552211   -0.172078    0.576446
C     -4.554265    0.016758   -0.791035
C      3.236691    0.402905   -1.423400
C      3.882680    0.038980   -0.263566
C     -0.413472    0.352132   -0.434654
C     -3.181336   -0.098647   -0.663847
C     -2.300770   -0.149315   -1.825599
O     -5.185020    0.089559   -1.991417
O      4.022688    0.664481   -2.534380
O     -2.780679   -0.090118   -2.970778
O      5.272536   -0.065876   -0.196298
O     -0.915292   -0.265236   -1.624654
H      7.022899   -0.239971    0.913869
H      5.507982    0.114611    1.872478
H      5.824030   -1.540716    1.135145
H     -5.345234    0.024720    2.514258
H     -2.864533   -0.182789    2.682752
H     -6.380936    0.148814    0.279912
H      1.105142   -0.328620    1.668765
H      3.571170   -0.514948    1.788492
H      1.352936    0.787682   -2.383373
H     -0.829763    0.334283    1.651516
H     -0.761863   -1.351889    0.892974
H     -0.671273    1.430270   -0.397370
H     -4.853911    0.077780   -2.890623
H      3.568376    0.937248   -3.410242
