38

C     -0.724039    2.381507    0.416782
C      0.181449   -2.012036    1.434123
C     -0.481577    1.998545   -1.028094
C      2.488374   -0.021466   -1.599533
C      2.465390    0.153825    0.757121
C      3.849573    0.206498   -1.601499
C      3.829570    0.384562    0.754769
C     -4.334526   -0.346726   -0.831496
C     -3.212652    0.292869   -1.349511
C     -2.909488   -1.561249    0.593971
C     -0.332708   -1.068058    0.394195
C      1.759097   -0.052528   -0.404782
C      4.542299    0.414579   -0.423071
C     -4.186482   -1.294435    0.163254
C     -0.616172    0.509982   -1.244005
C     -1.948463    0.003857   -0.895541
C     -1.767494   -0.942667    0.098496
C      0.330049   -0.245431   -0.378711
O      5.922582    0.649027   -0.428312
O     -5.312724   -1.934709    0.687329
H     -1.779499    2.263953    0.734453
H     -0.000735    1.885588    1.114577
H     -0.512973    3.469828    0.474832
H     -0.497933   -2.910564    1.490770
H      1.180376   -2.436401    1.139013
H      0.299739   -1.555363    2.420657
H     -1.106807    2.612194   -1.663276
H      0.578176    2.246726   -1.235175
H      1.946872   -0.181615   -2.515559
H      1.991034    0.147114    1.725993
H      4.402617    0.225754   -2.520407
H      4.408753    0.557306    1.679154
H     -5.339853   -0.136677   -1.175802
H     -3.403564    1.026178   -2.126263
H     -2.760127   -2.294628    1.368536
H     -0.330604    0.302814   -2.301357
H      6.605052   -0.092690   -0.366721
H     -5.222584   -2.645462    1.411956
