45

C     -0.557470    3.678910   -2.051528
C      1.589402    3.970254   -3.170123
C      0.938681    1.537014   -0.486817
C     -3.079814   -1.198682    1.545250
C      0.352690   -2.715319   -0.691054
C      1.582728   -3.101620    1.272891
C      0.304817   -3.909862   -1.180500
C      1.549087   -4.471058    0.733094
C     -1.946497   -1.406661    0.910347
C      1.012678    0.010947   -0.525415
C      1.207103    1.982375   -1.935567
C     -2.022090    0.542164    2.764210
C     -4.320500   -0.204748    3.388458
C      0.544133    0.851822    2.302292
C     -3.176866   -0.172095    2.554861
C     -0.891029    0.309645    2.113140
C      0.903669   -2.164035    0.457591
C      1.008165   -4.858583   -0.296193
C     -0.746269   -0.656795    1.147991
C      0.669327   -0.746222    0.719001
F      0.904979   -6.196236   -0.831824
N     -5.314866   -0.215521    4.107749
N      0.797037    3.323658   -2.151695
O      1.354234   -0.167964    1.751981
H     -0.610017    4.588997   -1.344567
H     -1.132187    3.887657   -2.944983
H     -1.147705    2.900225   -1.469298
H      1.384416    3.444487   -4.122840
H      2.693212    3.671762   -2.949347
H      1.547436    5.057632   -3.221600
H      1.765231    1.894641    0.117395
H     -0.098735    1.756675   -0.201298
H     -4.051171   -1.725236    1.354007
H     -0.173420   -1.878604   -1.387980
H      2.114461   -2.904408    2.172847
H     -0.180912   -4.179949   -2.081143
H      2.113583   -5.213247    1.401134
H     -1.841537   -2.194237    0.205393
H      1.986997   -0.272909   -0.922672
H      0.247240   -0.271523   -1.350794
H      2.387010    2.103850   -1.908025
H      0.977892    1.210671   -2.634653
H     -2.041633    1.372446    3.513727
H      0.803915    0.871793    3.368097
H      0.592597    1.857886    1.958461
