49

C      4.569411   -0.317933   -2.047946
C     -3.229620    3.911138    0.015812
C     -3.191701   -4.314017   -1.012682
C      4.998890    0.957885   -2.345326
C     -1.968162    4.287511    0.451987
C     -3.572081   -3.148432   -1.700863
C      3.695135   -0.492576   -0.996531
C     -3.451796    2.547984   -0.191310
C     -2.294520   -4.245145    0.032841
C      4.553169    2.022240   -1.596688
C     -0.962537    3.342441    0.674377
C     -3.053004   -1.919085   -1.337060
C      1.696900   -0.463518    1.538091
C      2.297203    1.977312    1.192852
C      2.368134    0.648845    0.858773
C      3.227443    0.562355   -0.222425
C     -2.455378    1.630665    0.030918
C     -1.772291   -3.028932    0.402950
C      3.679260    1.827604   -0.549352
C     -1.196250    1.995588    0.465266
C      0.593387   -1.131734    0.793182
C     -2.173645   -1.904238   -0.293522
C     -0.504214   -0.252893    0.455431
C     -0.777037   -3.132332    1.462220
C     -2.735495    0.298236   -0.194026
N      3.081311    2.653855    0.345170
N     -0.254401    1.034171    0.666146
N      0.204000   -2.296537    1.575879
N     -1.769468   -0.575171    0.018049
O     -0.925332   -4.172076    2.346197
O     -3.863495   -0.041259   -0.570777
H      4.946284   -1.114810   -2.661404
H     -3.994273    4.656797   -0.150693
H     -3.604935   -5.270446   -1.304338
H      5.696878    1.142422   -3.176433
H     -1.775283    5.337432    0.618947
H     -4.272108   -3.183147   -2.522828
H      3.354496   -1.478275   -0.755851
H     -4.428753    2.204125   -0.533857
H     -1.964345   -5.118298    0.604188
H      4.898171    3.014096   -1.842337
H     -0.017818    3.688990    1.006145
H     -3.275015   -1.054644   -1.888286
H      2.492537   -1.210298    1.855733
H      1.315788   -0.104081    2.550762
H      1.724033    2.446857    2.005083
H      1.030181   -1.532652   -0.159309
H      3.234100    3.677086    0.345190
H     -0.173754   -4.363106    3.006612
