30

C     -2.794263    0.864657    1.228739
C     -1.696608   -1.711150   -1.202948
C     -0.241339   -1.502463   -0.963672
C     -0.247720    1.918621   -0.425959
C      1.136356    2.256991   -0.025118
C     -2.428423   -1.013577   -0.098569
C      0.170059   -0.436234   -0.307251
C     -0.696667    0.625135    0.243313
C      2.051948    1.122849    0.058114
C      1.650277   -0.237818   -0.074003
C      3.857159   -0.819461    0.225768
N      4.901926   -1.514047    0.345569
N      2.577101   -1.132175    0.017182
N     -2.093413    0.368420    0.032964
S      3.743817    0.973198    0.303967
H     -2.421250    1.844911    1.543033
H     -2.582760    0.083762    2.016740
H     -3.891209    0.849803    1.089471
H     -2.017613   -1.244064   -2.166105
H     -1.967555   -2.788587   -1.152300
H      0.512152   -2.197456   -1.309201
H     -0.290392    1.799728   -1.537016
H     -0.924956    2.741969   -0.172509
H      1.554654    2.973371   -0.787508
H      1.117140    2.805015    0.936714
H     -3.522699   -1.097397   -0.194366
H     -2.161487   -1.529978    0.854578
H     -0.457904    0.741134    1.320085
H      4.799037   -2.547461    0.275251
H      2.364631   -2.197696   -0.074964
