78

C     -4.942368   -4.700701    0.557427
C      5.346340   -4.710304   -1.099589
C     -4.839710    2.067953    3.644330
C      4.839853    2.454336   -2.538762
C     -0.251001   -0.620048    2.229225
C      0.235298   -1.149753   -2.641094
C     -2.791624   -3.516155    0.041813
C      2.942982   -4.018846   -0.953315
C     -1.906470   -2.487245    0.129937
C      1.933147   -3.059566   -1.046033
C     -1.191331    2.143046    1.585704
C      0.708264    1.652579   -1.789926
C     -4.003890   -3.564102    0.666116
C      4.251776   -3.695635   -1.199737
C     -3.567447    2.173583    2.891226
C      3.402426    2.245513   -2.284504
C     -2.252337   -1.362732    0.930742
C      2.215419   -1.734302   -1.392427
C     -1.898536    0.959824    1.646750
C      1.652123    0.634349   -1.755800
C     -1.626951    3.316449    2.142571
C      1.144300    2.919055   -2.066935
C     -3.089058    0.978669    2.297756
C      2.963380    0.943703   -1.999806
C     -2.854237    3.353681    2.823442
C      2.474907    3.255453   -2.318826
C     -3.459266   -1.362981    1.571015
C      3.519278   -1.462434   -1.628475
C     -4.321890   -2.470920    1.432495
C      4.541131   -2.416170   -1.541317
C     -3.948655   -0.205076    2.293869
C      3.953237   -0.108849   -1.944575
C     -3.330319    4.579829    3.393363
C      2.818509    4.615589   -2.597176
C     -1.293447   -0.294826    1.098128
C      1.139885   -0.752096   -1.449707
O     -0.872558    4.503198    2.052125
O      0.208515    3.944087   -2.099666
O     -5.520554   -2.410297    2.114561
O      5.839819   -2.060065   -1.799678
O     -5.054023   -0.230537    2.875568
O      5.181411    0.089830   -2.154943
O     -4.367245    4.818312    4.018322
O     -2.476382    5.730404    3.225308
O      1.841299    5.467120   -2.601511
O      4.024985    5.195108   -2.869900
O     -0.452092    0.019077    0.031967
O      0.480062   -0.767252   -0.253794
H     -4.855845   -5.365377    1.450115
H     -5.992412   -4.379159    0.404591
H     -4.578485   -5.324281   -0.311557
H      6.088531   -4.605161   -1.921768
H      4.936597   -5.738611   -1.068637
H      5.908195   -4.572827   -0.153772
H     -5.742899    2.069475    3.001126
H     -4.827865    1.184737    4.344098
H     -4.957502    2.941153    4.347842
H      5.186812    1.891756   -3.455825
H      5.085876    3.513936   -2.676316
H      5.483971    2.168165   -1.646311
H      0.172277    0.339155    2.556469
H      0.541237   -1.268008    1.798035
H     -0.792723   -1.082342    3.051954
H      0.783229   -0.879917   -3.563846
H     -0.704748   -0.574444   -2.567410
H      0.054108   -2.221835   -2.572529
H     -2.547798   -4.397643   -0.569816
H      2.707378   -5.035050   -0.679855
H     -0.967466   -2.455516   -0.374816
H      0.934219   -3.375129   -0.854705
H     -0.240196    2.122123    1.057387
H     -0.332191    1.468688   -1.620292
H     -0.002000    4.435743    1.554454
H     -0.763905    3.761772   -1.919717
H     -6.202039   -3.136204    2.037164
H      6.601348   -2.657410   -1.628967
H     -2.509383    6.434149    3.964561
H      4.186729    5.838204   -3.647914
