10

C     -1.205958   -0.185089   -0.242175
C      1.254764   -0.180967    0.388763
C      0.102471    0.574986   -0.107423
O      1.137751    0.217266   -0.960086
H     -1.030709   -1.273139   -0.048939
H     -1.893321    0.150532    0.561651
H     -1.582376    0.013542   -1.257037
H      1.155148   -1.289404    0.486575
H      2.045696    0.340934    0.974398
H      0.016534    1.631339    0.204273
