46

C     -4.959583    1.091520    1.989791
C     -2.182513    1.407436    0.278781
C     -4.086672    0.364197    1.725590
C      1.925956   -1.334905   -1.996432
C      4.323005    1.534161    0.003668
C      0.459610   -1.147668   -1.838191
C      3.115175    1.129602    0.586898
C      0.619642    0.598772    1.563676
C     -2.416722   -1.017737   -0.927898
C     -0.780352    0.422119    2.038831
C     -3.418671   -1.398135    0.188132
C      3.953543    0.074099   -1.858769
C      2.753878   -0.328712   -1.283219
C      4.722347    0.994507   -1.219692
C      2.341961    0.177970   -0.102932
C      1.065177   -0.277821    0.447400
C      0.018759   -0.298878   -0.687797
C     -1.193039   -0.843131   -0.074001
C     -1.767805    0.121160    0.949928
C     -2.987374   -0.585072    1.382957
O      5.937002    1.429252   -1.772352
O     -2.826444   -1.466679    2.452362
H     -5.779299    1.769041    2.256253
H     -3.286083    1.538807    0.248353
H     -1.824705    1.537589   -0.742151
H     -1.795215    2.245896    0.890494
H      2.212222   -1.328769   -3.080351
H      2.193168   -2.375700   -1.647941
H      4.970656    2.276885    0.495382
H      0.078973   -0.683712   -2.799242
H     -0.034036   -2.144630   -1.822847
H      2.854230    1.558212    1.513881
H      0.841435    1.664442    1.300861
H      1.296041    0.388416    2.434746
H     -2.747605   -0.126049   -1.453147
H     -2.266138   -1.848527   -1.619065
H     -1.107633    1.405552    2.474118
H     -0.860171   -0.301785    2.894572
H     -4.453156   -1.242998   -0.108266
H     -3.287837   -2.493259    0.355760
H      4.294108   -0.329985   -2.803969
H      1.170441   -1.320010    0.797121
H     -0.014615    0.749332   -1.046568
H     -0.958841   -1.805189    0.411842
H      5.907940    2.224167   -2.388700
H     -2.020761   -2.003780    2.394307
