78

C     -3.417820    0.814835    5.435824
C      4.927293    1.863917    4.754016
C     -6.089702    0.269335   -1.634231
C      5.229372   -1.816707   -1.815694
C     -0.848250   -1.897371    0.333053
C      1.410258    2.484009   -0.420430
C     -1.643802    0.062961    3.877919
C      2.889147    2.245395    3.405820
C     -1.203955   -0.261185    2.624062
C      2.118500    2.050895    2.290487
C     -2.085463   -0.947757   -2.156914
C      1.489888    0.119303   -2.117959
C     -2.930142    0.460402    4.082989
C      4.094979    1.639255    3.522655
C     -4.700935   -0.174580   -1.904873
C      3.907288   -1.166148   -2.006544
C     -2.070155   -0.194057    1.499907
C      2.556864    1.239369    1.275659
C     -2.510379   -0.545536   -0.912299
C      2.216107    0.260597   -0.963997
C     -2.909851   -0.982128   -3.288855
C      1.933333   -0.626984   -3.179900
C     -3.818974   -0.164242   -0.805715
C      3.433147   -0.387777   -0.914575
C     -4.236681   -0.586278   -3.147035
C      3.164200   -1.294592   -3.150230
C     -3.373255    0.204691    1.695386
C      3.777357    0.626965    1.393463
C     -3.815143    0.534958    2.978921
C      4.577454    0.804296    2.508745
C     -4.266297    0.224930    0.539016
C      4.243369   -0.209469    0.287588
C     -5.132581   -0.599415   -4.276400
C      3.587741   -2.067476   -4.296633
C     -1.518574   -0.529027    0.193190
C      1.630739    1.065785    0.115875
O     -2.360146   -1.402636   -4.464199
O      1.173299   -0.748826   -4.330858
O     -5.085506    0.932266    3.210126
O      5.791299    0.248994    2.724484
O     -5.453792    0.582252    0.678037
O      5.348777   -0.758288    0.411358
O     -6.333395   -0.272170   -4.283201
O     -4.633892   -1.023859   -5.535029
O      2.773901   -2.091691   -5.307465
O      4.717925   -2.788245   -4.500004
O     -0.520350    0.389553   -0.213526
O      0.454696    0.512125    0.592492
H     -3.425074    1.913052    5.586181
H     -4.500660    0.504658    5.507014
H     -2.892273    0.261957    6.230381
H      6.011833    1.811939    4.521808
H      4.729911    2.886665    5.154501
H      4.697775    1.129590    5.545768
H     -6.768936    0.256766   -2.482878
H     -6.093290    1.329200   -1.272989
H     -6.587390   -0.432435   -0.890616
H      6.053890   -1.075758   -1.690014
H      5.153753   -2.524374   -0.938076
H      5.523790   -2.425091   -2.673127
H      0.179813   -1.708117    0.645242
H     -0.878330   -2.459975   -0.613341
H     -1.444851   -2.475150    1.064081
H      0.664595    3.022794    0.205531
H      1.061799    2.468088   -1.474970
H      2.364986    3.054539   -0.406549
H     -0.951149    0.001965    4.730305
H      2.537782    2.892168    4.212501
H     -0.186856   -0.581776    2.478574
H      1.164156    2.560598    2.251347
H     -1.039779   -1.265259   -2.286127
H      0.518554    0.638226   -2.191039
H     -2.686679   -1.513995   -5.337521
H      0.276810   -0.303796   -4.440149
H     -5.836977    1.056204    2.639399
H      6.402014   -0.346118    2.268468
H     -5.205904   -1.000184   -6.362470
H      4.668796   -3.777021   -4.785740
