49

C     -5.483322   -0.926385    0.111537
C     -1.298895    3.803572   -0.964796
C      0.174989   -4.330532    0.702207
C     -4.059836   -0.779930    0.676497
C     -1.765688    2.670503   -0.123643
C     -3.237379    0.106175   -0.196392
C      3.715421    2.004050   -0.240384
C      4.955395    1.423944   -0.106717
C     -0.919943   -2.149292    0.507857
C      1.497379   -2.251291    0.447884
C      1.260194    1.904728   -0.412600
C      0.269960   -2.869051    0.546873
C      2.577348    1.227300   -0.141968
C     -0.966920   -0.780775    0.371321
C      1.474373   -0.881512    0.308814
C     -1.889111    0.334220    0.284669
C      0.109842    1.265396    0.239611
C      5.065782    0.058323    0.127456
C      2.719887   -0.120595    0.093742
C      0.293845   -0.186806    0.275430
C      3.915045   -0.740579    0.231516
N     -1.158451    1.386160   -0.492260
O      6.324867   -0.476863    0.251994
O      4.077053   -2.070655    0.459893
H     -6.083012   -0.138744    0.606533
H     -5.918857   -1.917410    0.351952
H     -5.453229   -0.830670   -0.973541
H     -1.106156    4.719369   -0.329207
H     -2.095660    4.160339   -1.677538
H     -0.379859    3.602907   -1.514827
H     -0.386577   -4.513471    1.659059
H     -0.465042   -4.786064   -0.088119
H      1.161146   -4.799670    0.749248
H     -4.106445   -0.381283    1.717818
H     -3.699152   -1.797517    0.754743
H     -2.862985    2.631481   -0.154315
H     -1.422756    2.897031    0.930966
H     -3.165623   -0.474633   -1.195842
H     -3.807083    1.018950   -0.504523
H      3.675776    3.074055   -0.422539
H      5.862214    2.007742   -0.182005
H     -1.855443   -2.684472    0.580802
H      2.371714   -2.835522    0.474874
H      1.374464    2.943972   -0.065084
H      1.125883    1.956330   -1.530161
H     -1.890040    0.808887    1.339281
H     -0.072611    1.656148    1.280975
H      6.585242   -1.423327    0.420112
H      4.962253   -2.514529    0.558482
