40

C     -6.178926    0.261247    0.050361
C     -5.391726    1.156148    0.726821
C     -5.575814   -0.731986   -0.682106
C     -3.991394    1.106119    0.706924
C     -3.579393   -1.789426   -1.445141
C     -2.204349   -1.857510   -1.478819
C      0.998438    1.740465    1.241384
C      2.363781    1.658944    1.197547
C      2.788525   -1.288582   -0.991974
C      4.100243   -1.342907   -1.015141
C     -1.194431    0.952022    0.626815
C     -0.029204   -1.034319   -0.838574
C     -4.188111   -0.792767   -0.710169
C     -1.409655   -0.957854   -0.798722
C      0.180168    0.858955    0.574522
C     -3.390851    0.120959   -0.019561
C      2.183629   -0.225671   -0.208704
C      3.004536    0.656269    0.458471
C     -2.009211    0.058069   -0.049288
C      0.793954   -0.144765   -0.165645
C      5.058141   -0.470085   -0.352718
C      4.476859    0.615884    0.445595
O      5.935294    0.025798   -1.357033
O      4.936531    0.609761    1.784105
H     -7.263380    0.354362    0.106273
H     -5.858124    1.945988    1.309458
H     -6.208451   -1.428455   -1.208813
H     -3.435624    1.834637    1.256553
H     -4.219216   -2.492082   -1.976552
H     -1.753927   -2.653802   -2.066482
H      0.574815    2.552724    1.841282
H      3.003642    2.353615    1.723003
H      2.179383   -1.990532   -1.522544
H      4.548448   -2.167798   -1.623358
H     -1.597762    1.749064    1.215618
H      0.354729   -1.839033   -1.433353
H      5.717162   -1.080953    0.360804
H      4.773079    1.637488    0.005102
H      6.647962    0.497620   -0.831925
H      4.860229    1.542389    2.099390
