40

C      6.061692    0.122765    0.556169
C      5.305140    0.962175    1.331204
C      5.513881   -0.754344   -0.343591
C      3.916807    0.922789    1.199177
C      3.536593   -1.656617   -1.364146
C      2.173149   -1.686811   -1.485450
C     -1.053117    1.631505    1.562613
C     -2.421154    1.602498    1.442204
C     -2.810299   -1.041564   -1.185440
C     -4.116136   -1.079956   -1.310990
C      1.144608    0.851798    0.943094
C      0.006113   -0.868330   -0.825750
C      4.137300   -0.798161   -0.479189
C      1.402248   -0.852421   -0.716316
C     -0.232335    0.807407    0.806926
C      3.358838    0.047957    0.300971
C     -2.201878   -0.126946   -0.244626
C     -2.995590    0.708413    0.523964
C      1.958342    0.031894    0.191082
C     -0.830862   -0.067300   -0.093870
C     -5.024364   -0.241724   -0.547286
C     -4.467297    0.713069    0.429820
O     -5.924344    0.396732   -1.430100
O     -4.959887    0.400093    1.729383
H      7.148473    0.153013    0.658943
H      5.770183    1.657922    2.046965
H      6.089043   -1.426035   -0.965802
H      3.336929    1.588533    1.815213
H      4.168057   -2.304985   -1.959628
H      1.675246   -2.353054   -2.174389
H     -0.630696    2.329072    2.277290
H     -3.077727    2.231940    2.017406
H     -2.216882   -1.725633   -1.818623
H     -4.508354   -1.812413   -2.058032
H      1.517935    1.542208    1.647444
H     -0.365290   -1.576228   -1.547172
H     -5.697455   -0.961801    0.025464
H     -4.836777    1.764390    0.243638
H     -5.596533    0.313040   -2.358364
H     -4.253597    0.555107    2.406244
