46

C     -4.674101    0.875927   -2.595222
C     -1.556648   -0.252482   -1.750083
C     -3.767010    1.281379   -1.740280
C      2.937816   -0.010244   -0.194774
C      2.308338   -3.183023    2.608167
C      1.921519    1.111786    0.059722
C      1.290937   -2.281878    2.316740
C     -0.980902   -1.041851    1.145870
C     -0.483065    2.460264   -1.205524
C     -2.126742   -0.250027    0.628004
C     -1.899116    2.751144   -1.596119
C      3.696340   -2.004688    1.073576
C      2.668674   -1.110271    0.792405
C      3.516850   -3.035257    1.976267
C      1.452932   -1.255272    1.423767
C      0.336380   -0.343815    1.171079
C      0.579819    0.474548   -0.097619
C     -0.576299    1.428599   -0.168868
C     -1.791224    0.608461   -0.537927
C     -2.767733    1.721661   -0.827168
O      4.515203   -3.951051    2.288856
O     -3.302412    2.310753    0.297211
H     -5.346804    0.569975   -3.253021
H     -2.559645   -0.457219   -2.205415
H     -1.143636   -1.237978   -1.482828
H     -0.871923    0.213309   -2.481481
H      2.733656   -0.363631   -1.240951
H      3.970519    0.365554   -0.086365
H      2.149263   -3.982332    3.318700
H      2.109791    1.459064    1.104308
H      2.122522    1.908368   -0.677416
H      0.351198   -2.427721    2.828493
H     -0.889294   -2.045011    0.631619
H     -1.235050   -1.312679    2.215104
H      0.039167    2.110300   -2.122581
H      0.064428    3.382643   -0.893688
H     -2.614319    0.313932    1.475237
H     -2.892796   -1.001050    0.268433
H     -2.090411    2.670377   -2.686337
H     -2.200709    3.794219   -1.294841
H      4.663698   -1.939278    0.602564
H      0.270508    0.425363    1.996639
H      0.595590   -0.161247   -1.005085
H     -0.816545    1.896094    0.810227
H      5.115720   -3.667725    3.079348
H     -2.824487    3.182009    0.466967
