14

C     -1.822740    0.441426   -0.521522
C      2.403413    0.062592    0.057877
C     -1.286465   -0.539604    0.500151
C      0.133106   -0.221992    0.743684
Cl    -2.209000   -0.522277    1.992924
O      0.490326    0.088665    1.915706
O      1.082565   -0.252421   -0.262536
H     -2.484753   -0.091564   -1.208097
H     -2.348853    1.269985    0.025479
H     -0.983576    0.853262   -1.102250
H      2.586226   -0.174058    1.136618
H      3.128869   -0.501560   -0.564657
H      2.626185    1.145133   -0.073836
H     -1.315302   -1.557586    0.044664
