37

C     -4.091724    1.804754   -0.952735
C     -4.209398    0.102316    0.932879
C      0.754535   -2.429482   -1.671096
C      4.812639    1.651661    1.318428
C     -1.454997   -0.434035    0.715243
C     -2.103351    0.561066   -0.178395
C     -0.825914   -1.566560   -0.042786
C      3.381694   -0.348931    1.148857
C      1.675115    0.751045   -0.778857
C     -3.398364    0.835030   -0.099786
C      0.240964   -1.145975   -1.002292
C      3.663396    0.885011    0.766409
C      1.387905   -0.481249   -0.401681
C      2.804695    1.501042   -0.234528
C      2.251504   -1.091432    0.600326
O      3.057949    2.676580   -0.611134
O      2.017676   -2.283614    1.000914
H     -4.588727    2.566698   -0.284033
H     -4.940738    1.311113   -1.494481
H     -3.436601    2.353691   -1.631068
H     -4.162452   -0.975377    0.648665
H     -5.272208    0.383730    0.895133
H     -3.822148    0.286478    1.949260
H      0.783446   -3.185577   -0.856824
H      1.754225   -2.276022   -2.117637
H     -0.001737   -2.774247   -2.408022
H      5.716612    0.978602    1.355195
H      4.612060    2.022796    2.347760
H      5.074664    2.481151    0.630115
H     -0.743225    0.057285    1.414122
H     -2.251292   -0.870522    1.353700
H     -1.536977    1.101756   -0.931062
H     -1.623036   -2.078921   -0.618845
H     -0.414525   -2.293144    0.674573
H      4.019382   -0.805622    1.891780
H      1.070084    1.277905   -1.530060
H     -0.201133   -0.549003   -1.798037
