37

C     -4.159504    0.569044    0.948410
C     -5.044381    1.406751   -1.295005
C      0.292698   -2.424851   -0.163746
C      5.754932    1.137033   -0.009254
C     -2.064704   -0.749089   -0.343192
C     -3.070724    0.026554   -1.138728
C     -0.671308   -0.165575   -0.578352
C      4.154257   -0.478405    0.793420
C      1.910989    0.680307   -0.591080
C     -4.052669    0.643059   -0.519597
C      0.307794   -0.978375    0.242779
C      4.369583    0.597600    0.055831
C      1.676300   -0.393591    0.140128
C      3.271538    1.218998   -0.661584
C      2.791522   -0.999432    0.850388
O      3.536940    2.239397   -1.346396
O      2.568791   -2.021283    1.546717
H     -4.302603   -0.474852    1.299303
H     -4.955905    1.246793    1.310669
H     -3.197697    0.991246    1.358087
H     -6.058650    1.361408   -0.815298
H     -5.159003    1.056417   -2.336402
H     -4.779314    2.482190   -1.333635
H      1.351430   -2.747097   -0.304007
H     -0.161481   -3.020070    0.650182
H     -0.275864   -2.583182   -1.115076
H      5.928028    1.620690   -0.993152
H      5.911969    1.877997    0.800871
H      6.452507    0.283904    0.093787
H     -2.292189   -0.725702    0.726286
H     -2.104160   -1.792108   -0.688990
H     -2.963644    0.061393   -2.219695
H     -0.423976   -0.134776   -1.648517
H     -0.631329    0.870032   -0.174106
H      4.964104   -0.957400    1.337805
H      1.130534    1.179203   -1.143428
H     -0.004811   -0.904230    1.300610
