26

C      3.519872   -0.192018    0.203804
C     -2.549809   -1.131845   -1.264907
C      2.109129   -0.354017   -0.331516
C     -2.353739    0.118465   -0.454593
C      1.212557   -0.506876    0.873244
C     -0.216339   -0.678670    0.566572
C     -0.885776    0.401667   -0.181149
C     -0.863027    1.667941    0.585645
O     -0.418867    1.655107    1.752619
O     -1.312082    2.874230    0.074482
H      3.493592    0.217515    1.236485
H      3.979814   -1.208822    0.287954
H      4.122445    0.492857   -0.429073
H     -3.540899   -1.041886   -1.764247
H     -1.801946   -1.257023   -2.063091
H     -2.634523   -2.043552   -0.615883
H      1.885869    0.599437   -0.884538
H      2.122220   -1.230317   -0.989468
H     -2.821285    0.957407   -1.007747
H     -2.937649   -0.004131    0.481963
H      1.448008    0.328026    1.559725
H      1.621494   -1.413581    1.414968
H     -0.332424   -1.661934    0.024940
H     -0.760703   -0.840508    1.529587
H     -0.436197    0.628747   -1.171025
H     -1.649735    3.623782    0.648139
