54

C     -3.143364    1.799659    0.524929
C      3.425503    1.918708    0.235861
C     -2.624317    0.563078   -3.463524
C      1.240174    3.368399   -0.442394
C     -1.650914    1.504862    0.922032
C      0.418052   -2.347840    3.944029
C      0.272428   -3.380421   -2.636765
C     -0.810542   -1.965313    3.477544
C      1.563732   -2.049842    3.250347
C      0.423437   -2.070755   -3.034668
C      0.090814   -3.665352   -1.306730
C     -0.871524   -1.255020    2.262748
C      1.455510   -1.353581    2.067200
C      0.396577   -1.015342   -2.113606
C      0.065096   -2.603096   -0.390058
C      1.437236    0.521628    0.000922
C      2.045526    1.516802    0.858372
C     -2.332238    0.175424   -2.056205
C      0.254575   -0.949029    1.558400
C      0.215041   -1.311453   -0.790674
C     -1.150251    0.378794    0.105000
C      0.182497   -0.178813    0.242562
N      1.359453    2.817244    0.894218
O     -2.990234   -0.786001   -1.566928
O     -1.398708    0.798661   -1.272480
H     -3.158792    2.316220   -0.453565
H     -3.704722    0.843796    0.533268
H     -3.543871    2.512792    1.274323
H      3.429266    1.688328   -0.840770
H      4.152692    1.216775    0.694413
H      3.706930    2.929008    0.517058
H     -3.720318    0.724023   -3.532022
H     -2.144850    1.517291   -3.740392
H     -2.382253   -0.264231   -4.154215
H      0.886378    4.422746   -0.418610
H      0.458599    2.805995   -0.982887
H      2.167911    3.269807   -1.036607
H     -1.715485    1.346771    2.009344
H     -1.208218    2.489117    0.661211
H      0.506886   -2.904242    4.888902
H      0.292256   -4.184378   -3.334685
H     -1.704294   -2.207004    4.034434
H      2.547985   -2.365320    3.639508
H      0.566408   -1.851760   -4.085893
H     -0.031533   -4.677433   -0.953564
H     -1.875799   -1.001162    1.983911
H      2.354236   -1.138354    1.556263
H      0.520470   -0.030033   -2.523432
H     -0.081190   -2.904829    0.647490
H      2.227014   -0.276069   -0.237447
H      1.367813    1.013344   -1.039882
H      2.270090    1.271461    1.888751
H     -1.877978   -0.469179    0.208345
H      1.820811    3.475122    1.526614
