56

C     -1.794698   -2.649826    1.676038
C      3.763210   -1.101030    0.367237
C     -3.916750   -0.454868   -1.771668
C      2.602609   -3.138266   -1.181486
C     -0.809224   -1.472786    1.720321
C     -0.119432    2.228210   -3.534506
C     -0.948140    3.368761    3.160228
C     -0.231677    2.978732   -2.389310
C      0.092628    0.872889   -3.389493
C     -1.860811    2.449212    2.710615
C      0.332752    3.293398    2.685964
C     -0.128152    2.349923   -1.150679
C      0.194208    0.256308   -2.161236
C     -1.533154    1.447661    1.795103
C      0.664285    2.290550    1.767774
C      1.609238   -0.045441    0.673270
C      2.352563   -0.949298   -0.241694
C     -2.608772   -1.000014   -1.280518
C      0.082665    1.005343   -1.002209
C     -0.255304    1.369170    1.320326
C     -0.738904   -0.846802    0.352926
C      0.211458    0.321587    0.330409
N      1.835012   -2.273187   -0.292342
O     -2.066984   -1.981897   -1.844500
O     -1.927604   -0.492906   -0.221893
Cl     0.689909    0.000000    0.000000
H     -2.805148   -2.334769    1.436015
H     -1.817760   -3.180714    2.636214
H     -1.438832   -3.344841    0.909493
H      3.640552   -1.816616    1.211495
H      4.116937   -0.143499    0.784505
H      4.439102   -1.485787   -0.418584
H     -4.644502   -0.538012   -0.964273
H     -4.255625   -1.085821   -2.625367
H     -3.785721    0.564348   -2.180168
H      2.761246   -2.620643   -2.161951
H      1.982083   -4.034686   -1.379627
H      3.557422   -3.353360   -0.670872
H      0.168457   -1.964874    1.899020
H     -0.961247   -0.810755    2.561057
H     -0.190434    2.658970   -4.529819
H     -1.199476    4.148942    3.872666
H     -0.397305    4.040511   -2.479851
H      0.191317    0.217448   -4.271461
H     -2.889924    2.466228    3.055580
H      1.075809    4.003617    3.020573
H     -0.233106    2.997151   -0.298819
H      0.359033   -0.828251   -2.133151
H     -2.276913    0.754734    1.466349
H      1.701088    2.355173    1.457059
H      2.279545    0.839614    0.823488
H      1.610008   -0.521642    1.712673
H      2.486100   -0.449823   -1.226407
H     -0.283825   -1.662814   -0.279593
H      2.010100   -2.695249    0.675077
H     -0.689909    0.000000    0.000000
