56

C      2.571222   -1.575468   -2.444065
C     -2.901737   -0.116178    1.275853
C      2.904154   -2.697285    1.772525
C     -2.883138   -2.814122    0.335528
C      1.179085   -0.965836   -2.199349
C     -0.508201    4.055248   -2.450383
C      0.890843    1.365525    3.617270
C     -1.474226    3.611171   -1.595849
C      0.592702    3.262424   -2.635138
C      1.044040    2.263303    2.596294
C      0.407385    0.100442    3.369539
C     -1.326204    2.406656   -0.955048
C      0.729526    2.045918   -1.979896
C      0.700121    1.871143    1.298494
C      0.081183   -0.248619    2.086232
C     -1.193632   -0.685104   -0.526882
C     -2.582244   -0.444611   -0.132083
C      2.593615   -1.598979    0.843422
C     -0.243615    1.547827   -1.092139
C      0.217419    0.611048    1.045550
C      1.216994   -0.410487   -0.833959
C     -0.101188    0.282367   -0.388530
N     -3.303637   -1.714899   -0.451585
O      3.419934   -0.654287    0.752157
O      1.462398   -1.513078    0.054713
Cl     0.683038    0.000000    0.000000
H      2.738976   -1.795384   -3.504449
H      3.368705   -0.909499   -2.065359
H      2.664529   -2.516191   -1.830118
H     -2.710441   -0.908930    2.021576
H     -4.036151   -0.000907    1.311956
H     -2.532235    0.830774    1.669277
H      1.966346   -3.158662    2.136917
H      3.574793   -2.348789    2.586338
H      3.441075   -3.487799    1.184922
H     -3.746745   -3.418753    0.745279
H     -2.383844   -3.552225   -0.362235
H     -2.137790   -2.603489    1.098592
H      0.964571   -0.326623   -3.051736
H      0.521044   -1.898243   -2.256688
H     -0.633402    5.011214   -2.955363
H      1.148315    1.639176    4.638039
H     -2.372435    4.214894   -1.416496
H      1.363617    3.607003   -3.310724
H      1.421849    3.276366    2.735518
H      0.280977   -0.617794    4.162071
H     -2.110409    2.125711   -0.256802
H      1.622121    1.487296   -2.128957
H      0.832568    2.606367    0.506319
H     -0.305550   -1.248074    1.832183
H     -0.866197   -1.736766   -0.214902
H     -1.266072   -0.865336   -1.669930
H     -3.114746    0.266889   -0.806990
H      2.081226    0.246015   -0.704112
H     -3.267493   -1.902361   -1.456795
H     -0.683038    0.000000    0.000000
