50

C     -1.896481   -1.142600    1.746315
C     -2.502290   -1.263114   -1.858362
C      6.710099    1.368192    0.902228
C      5.865132    2.130306    0.154582
C      6.408569    0.035685    1.096261
C     -4.012289    2.072998    1.236786
C      4.734519    1.558218   -0.388881
C      5.274464   -0.530760    0.549022
C     -2.933461    1.400264    0.685252
C     -5.306401    1.611043    1.031507
C      3.214276   -0.397347   -0.769974
C     -0.880010    0.492237   -1.143957
C      2.015504   -0.316129    0.153068
C      0.347846   -0.273745   -1.589922
C     -4.387591   -0.172460   -0.265829
C      0.049090   -1.726481    0.323300
C     -1.395813   -1.455422    0.319928
C      4.425990    0.221758   -0.196418
C     -3.086315    0.263089   -0.077768
C     -5.480164    0.480684    0.274279
C     -1.924298   -0.473948   -0.665711
N      0.899701   -0.929845   -0.467902
O     -6.764911    0.000835    0.056999
H     -2.984443   -1.049684    1.764682
H     -1.650414   -2.066234    2.324195
H     -1.326486   -0.330586    2.207468
H     -3.027722   -2.168041   -1.495142
H     -3.302081   -0.648569   -2.368274
H     -1.765552   -1.467674   -2.623951
H      7.601042    1.827820    1.333575
H      6.061250    3.196237   -0.022406
H      7.068815   -0.571354    1.689970
H     -3.872951    2.971894    1.838988
H      4.073720    2.158758   -0.977259
H      5.062347   -1.583702    0.727308
H     -1.969567    1.838039    0.902057
H     -6.185604    2.099230    1.442540
H      3.384687   -1.465418   -1.031052
H      3.019520    0.116563   -1.732672
H     -0.532773    1.059912   -0.232644
H     -1.301382    1.132452   -1.914721
H      2.256343   -0.719883    1.155748
H      1.849338    0.782363    0.310655
H      1.059202    0.495038   -1.956307
H      0.174938   -0.962000   -2.419809
H     -4.580940   -1.051467   -0.835319
H      0.431126   -1.639189    1.388323
H      0.285727   -2.808734    0.077765
H     -1.919093   -2.440997    0.109022
H     -7.284213    0.341765   -0.767543
