56

C      6.146377    1.851840   -1.432328
C     -6.026507   -1.858555    0.315202
C     -7.485691    0.846730    1.809638
C      2.200771   -1.501942    0.468299
C      0.790139   -1.111144    0.049112
C      2.745407   -0.641072    1.547464
C      0.712353    0.276491   -0.464587
C      4.121863   -1.089745    1.938786
C     -0.647826    0.713865   -0.896031
C      5.060176   -1.019809    0.769918
C     -1.254137   -0.091724   -1.991020
C      5.103575    0.410304    0.272269
C     -2.626160    0.439273   -2.345534
C     -3.628174    1.502479   -0.386256
C      6.068360    0.442032   -0.899321
C     -5.182206   -0.660586    0.078209
C     -3.565965    0.403442   -1.205494
C     -4.488891    1.532128    0.700037
C     -5.266603    0.424744    0.915674
N     -4.331459   -0.667747   -0.980552
O      7.326875   -0.010331   -0.514455
O     -4.559064    2.532807    1.462718
O     -6.145442    0.384364    1.977122
H      5.176397    2.378410   -1.302477
H      6.396593    1.861123   -2.516608
H      6.924331    2.442918   -0.907069
H     -6.342506   -1.897224    1.365692
H     -5.482623   -2.768257   -0.003986
H     -6.952616   -1.737806   -0.307332
H     -7.747268    1.494334    2.662918
H     -8.121359   -0.068561    1.793984
H     -7.631068    1.375074    0.855115
H      2.246070   -2.555855    0.803411
H      2.883003   -1.446706   -0.432061
H      0.140448   -1.320808    0.913578
H      0.538716   -1.805452   -0.804549
H      2.118099   -0.805674    2.483817
H      2.758524    0.445746    1.322344
H      1.093678    0.972486    0.310472
H      1.425514    0.365176   -1.320126
H      4.077368   -2.164793    2.282831
H      4.509775   -0.505999    2.814834
H     -0.591137    1.772836   -1.221870
H     -1.331990    0.684402   -0.023189
H      4.772818   -1.712035   -0.012977
H      6.106341   -1.335910    1.099690
H     -1.418276   -1.151401   -1.649538
H     -0.670323   -0.129775   -2.914988
H      4.117110    0.677791   -0.138640
H      5.363611    1.118071    1.058474
H     -2.507691    1.498072   -2.676947
H     -3.083256   -0.096508   -3.191472
H     -3.014012    2.358752   -0.568863
H      5.659657   -0.235885   -1.670132
H     -4.278088   -1.497081   -1.606718
H      7.796389    0.682693    0.013376
