25

C     -3.111503    0.372271   -0.113303
C      3.264388   -0.595610    0.114411
C      2.719071    0.295014   -0.787180
C      2.475427   -1.052916    1.148645
C      1.411246    0.710099   -0.644243
C      1.165677   -0.661309    1.324053
C     -0.740950    0.707603    0.509331
C     -1.709025   -0.168387   -0.247534
C      0.639921    0.228390    0.413257
N     -1.376988   -0.283871   -1.613907
Cl     0.685589    0.000000    0.000000
H     -3.291132    0.864833    0.864154
H     -3.296798    1.064855   -0.960616
H     -3.810447   -0.484461   -0.209606
H      4.296602   -0.919965   -0.002744
H      3.350337    0.657612   -1.610317
H      2.873895   -1.757252    1.879156
H      0.999759    1.416370   -1.370385
H      0.549506   -1.021792    2.136268
H     -0.882015    1.742526    0.144245
H     -1.042403    0.662169    1.595854
H     -1.701872   -1.197130    0.203652
H     -1.152457    0.549953   -2.131335
H     -1.630240   -1.129004   -2.103693
H     -0.685589    0.000000    0.000000
