48

C     -1.242125   -3.410655    1.794180
C     -4.710742    1.589455   -0.101682
C     -3.662163    1.075456   -0.817797
C     -4.563195    1.713361    1.263478
C     -2.483202    0.690138   -0.183894
C     -3.396469    1.331258    1.884495
C     -1.074815   -1.042513    2.308312
C     -1.066609    0.396648    1.859891
C      1.019871   -0.302576   -2.067901
C      0.965235    0.940116   -2.646876
C      2.936210    0.313241   -0.812829
C      1.083225   -2.117718    0.638114
C     -1.261153   -2.024084    1.190574
C     -2.321910    0.809058    1.186109
C      1.999518   -0.629501   -1.149735
C      2.897215    1.595613   -1.396476
C      1.928983    1.913264   -2.301622
C      2.017651   -1.977563   -0.550235
C      3.912746    2.542075   -0.995286
N      3.998073    3.719239   -1.435421
N     -0.257513   -1.944912    0.182143
O      1.853928    3.140897   -2.890563
O      1.765650   -2.914728   -1.540371
O      4.880121    2.140388   -0.050368
H     -0.948010   -3.393134    2.875338
H     -2.222173   -3.918216    1.656855
H     -0.497173   -4.066970    1.287599
H     -5.629688    1.887536   -0.611393
H     -3.779357    0.979416   -1.889205
H     -5.394890    2.119418    1.819715
H     -1.651357    0.281809   -0.765247
H     -3.318901    1.444674    2.957754
H     -0.155165   -1.271737    2.848976
H     -1.905152   -1.119203    3.067085
H     -0.911108    1.011091    2.778375
H     -0.202468    0.598786    1.185298
H      0.247595   -1.022114   -2.371267
H      0.217449    1.219617   -3.360742
H      3.712940    0.065936   -0.090012
H      1.337925   -1.326322    1.369752
H      1.300680   -3.143339    1.050690
H     -2.253683   -1.852005    0.682583
H      3.081929   -2.156066   -0.237416
H      4.696087    4.433800   -1.187306
H     -0.471509   -2.522979   -0.662853
H      2.332200    3.963444   -2.866114
H      1.596071   -2.545744   -2.423603
H      5.599228    2.786346    0.252485
