48

C      0.891653   -1.347725   -0.948241
C      7.493474   -0.571476    0.852371
C      6.810774    0.448862    1.460198
C      6.782048   -1.562661    0.196915
C      5.432632    0.464813    1.405396
C      5.413546   -1.524549    0.155762
C      2.839142    0.173876   -0.615355
C      3.241243   -0.531416    0.661221
C     -3.611491    2.087800   -1.231829
C     -4.852620    1.882453   -1.782057
C     -3.958107    0.302104    0.231189
C     -0.792785    0.793161   -0.386416
C      1.355457    0.107770   -0.848470
C      4.707619   -0.493205    0.769086
C     -3.131053    1.304380   -0.211594
C     -5.236825    0.066243   -0.308264
C     -5.703327    0.855131   -1.328387
C     -1.790757    1.516661    0.440378
C     -6.059495   -0.997587    0.243717
N     -7.167647   -1.313935   -0.085332
N      0.570461    0.824097    0.130420
O     -6.931881    0.727674   -1.945956
O     -1.907815    1.098333    1.751055
O     -5.436587   -1.733846    1.311012
H      0.182320   -1.490314   -1.778952
H      1.765184   -2.017795   -1.091891
H      0.353147   -1.575685   -0.009077
H      8.580163   -0.619228    0.876574
H      7.346847    1.218726    1.971548
H      7.316143   -2.385122   -0.293985
H      4.910909    1.292152    1.894507
H      4.882551   -2.315300   -0.368527
H      3.098702    1.244310   -0.511915
H      3.369649   -0.292894   -1.441792
H      2.806089   -1.542212    0.622835
H      2.823914   -0.004856    1.550797
H     -2.950896    2.889242   -1.587394
H     -5.231091    2.492455   -2.580687
H     -3.609871   -0.333646    1.042822
H     -0.767256    1.269220   -1.415152
H     -1.085637   -0.256509   -0.512689
H      1.172165    0.562292   -1.842331
H     -1.610708    2.622209    0.482863
H     -8.042819   -1.561776   -0.347118
H      0.620710    0.365906    1.069574
H     -7.657180    0.124625   -1.782294
H     -1.322591    0.325949    1.889840
H     -5.908100   -2.588707    1.614700
