55

C     -6.151441    1.617010   -2.123269
C     -4.972232    2.276492   -1.845235
C     -6.538824    0.550450   -1.342402
C     -4.165648    1.882197   -0.788090
C      4.381169   -0.694967    1.044846
C      4.266946    0.775851   -0.762627
C      5.751968   -0.753681    0.905987
C      5.632411    0.733409   -0.920650
C     -2.544829   -0.490805    0.766765
C     -6.238177   -0.984072    0.511024
C     -1.587510    0.254526   -0.089073
C      0.480536    0.336263   -1.300235
C      0.203190   -1.322758    0.419702
C      1.390703    1.111662   -0.369888
C      1.389309   -0.766215    1.174529
C     -5.219615   -1.419032    1.520069
C     -5.719512    0.156104   -0.274753
C      3.586618    0.071880    0.215990
C      6.389909   -0.039810   -0.078211
C     -4.542040    0.823591   -0.007923
C     -3.746110    0.346044    1.124655
N      8.870323    1.122231    0.669526
N     -0.404819   -0.444908   -0.476968
N      2.175532    0.128811    0.346898
O      8.429665    0.175944   -1.719866
O      8.646433   -1.463764    0.137735
O     -4.536841   -0.355115    2.036085
S      8.144224   -0.102452   -0.271238
H     -6.772384    1.951624   -2.969444
H     -4.655687    3.129496   -2.463840
H     -7.466917    0.052507   -1.582544
H     -3.257649    2.456804   -0.623147
H      3.944503   -1.276405    1.837677
H      3.747501    1.410288   -1.475629
H      6.369814   -1.365622    1.569805
H      6.126479    1.313017   -1.716011
H     -2.099280   -0.784478    1.763886
H     -2.901210   -1.394821    0.205925
H     -6.543903   -1.810406   -0.170456
H     -7.190788   -0.702485    1.040586
H     -1.293056    1.193785    0.417206
H     -2.134785    0.459178   -1.065804
H     -0.134886    0.988388   -1.941133
H      1.038532   -0.364744   -1.954142
H      0.631393   -2.185942   -0.177683
H     -0.505017   -1.792831    1.106404
H      0.707943    1.567710    0.389735
H      1.941166    1.920961   -0.827901
H      1.026584   -0.148336    2.036389
H      1.984046   -1.583276    1.599274
H     -4.522799   -2.151221    1.035220
H     -5.726972   -1.939073    2.390660
H     -3.361627    1.236316    1.698237
H      9.454194    1.778109    0.118545
H      8.223467    1.658720    1.254797
