53

C     -4.308841   -4.281510    0.507072
C     -6.056379    0.080044   -2.343318
C      6.771286   -0.677964   -1.336133
C      5.553668   -1.303120   -1.518694
C      7.016762    0.599643   -0.898238
C      4.288566   -0.858814   -1.103316
C      6.149535    1.524905   -0.398584
C     -2.464870   -0.630797    1.247473
C     -3.081671   -1.850410    0.999419
C      1.376969    1.717337    1.543904
C      0.227689    0.385787   -0.030698
C      2.386121    0.642202    1.337166
C      1.479044    0.338560   -0.956241
C     -3.902331    0.404783   -0.395895
C     -0.938134    1.873940    1.433701
C     -2.867138    0.489982    0.559087
C      3.952114    0.327341   -0.499408
C      4.763125    1.409324   -0.273546
C     -2.255650    1.793031    0.767720
C     -4.093538   -1.926606    0.063834
C     -4.508496   -0.802146   -0.637276
N      0.226002    1.598748    0.677819
N      2.612467    0.434238   -0.062670
O      4.160383    2.439604    0.099145
O     -2.328665    2.612633   -0.369274
O     -4.721457   -3.134007   -0.198118
O     -5.521882   -0.958871   -1.552095
H     -4.512560   -4.111623    1.581341
H     -4.779075   -5.203400    0.147915
H     -3.198015   -4.448916    0.428355
H     -6.886278    0.547888   -1.772024
H     -6.532818   -0.324619   -3.275316
H     -5.322442    0.875691   -2.581049
H      7.678759   -1.249295   -1.561349
H      5.618838   -2.232289   -2.041325
H      8.053474    0.901101   -0.965843
H      3.499578   -1.565279   -1.298633
H      6.601712    2.443526   -0.067226
H     -1.672936   -0.542752    1.978411
H     -2.743802   -2.706620    1.554021
H      1.816735    2.738565    1.483261
H      1.053139    1.634506    2.625795
H      0.301624   -0.497115    0.661176
H     -0.609680    0.234367   -0.705299
H      2.048311   -0.327213    1.772484
H      3.325773    0.976415    1.868491
H      1.419049    1.142151   -1.695781
H      1.465665   -0.682010   -1.386579
H     -4.208100    1.303394   -0.931360
H     -0.872636    1.246785    2.360942
H     -0.776791    2.926635    1.859189
H     -2.978239    2.331498    1.489138
H     -1.703960    2.340747   -1.076441
