64

C     -6.494435   -1.658924    0.895101
C     -5.220082   -1.973928    1.308606
C     -6.725422   -0.402183    0.409431
C     -4.178211   -1.041044    1.238510
C      4.066064    0.595081    0.503859
C      4.352281   -1.452274   -0.683606
C      5.399322    0.544187    0.831328
C      5.686933   -1.474069   -0.337648
C     -2.331651    1.034816   -0.415026
C     -6.028506    1.870990   -0.167383
C     -1.567002   -0.265284   -0.353937
C      0.103284   -1.586513   -1.314501
C      0.304433    0.759992   -1.509405
C      1.594764   -1.501524   -1.369713
C      1.240490    0.664594   -0.313348
C     -4.766034    2.628843   -0.451072
C     -5.698823    0.523633    0.338233
C      3.516326   -0.417443   -0.269581
C      6.244767   -0.473554    0.430455
C     -4.407509    0.217453    0.751265
C     -3.338505    1.212911    0.666595
N      8.815714    0.362506   -0.329540
N     -0.598326   -0.351586   -1.424049
N      2.152377   -0.399139   -0.629493
O      8.461854   -1.824229    1.151396
O      8.026832    0.315849    2.176914
O     -3.889390    2.497945    0.604831
S      7.932389   -0.465418    0.888998
C      1.058493    0.096100   -0.045387
O     -1.669856    0.780950    0.008153
O     -0.828743   -1.299632    1.259333
O     -0.930936   -1.334953   -1.230019
S     -0.601374   -0.529255   -0.007283
H     -7.313865   -2.382532    0.946243
H     -5.031813   -2.963977    1.693156
H     -7.722303   -0.130417    0.077618
H     -3.228403   -1.398837    1.607344
H      3.495835    1.425145    0.864209
H      3.969249   -2.277940   -1.298398
H      5.820120    1.330771    1.430506
H      6.324119   -2.281619   -0.664490
H     -1.578073    1.869046   -0.307362
H     -2.768117    1.145251   -1.419870
H     -6.663869    1.766542   -1.091415
H     -6.588146    2.465493    0.608560
H     -1.159322   -0.443305    0.644851
H     -2.347089   -1.081390   -0.497778
H     -0.183287   -2.173273   -0.405428
H     -0.211493   -2.222289   -2.189765
H      0.921294    0.558666   -2.447983
H     -0.135046    1.737539   -1.661221
H      1.945018   -1.431915   -2.424571
H      1.982076   -2.463471   -0.960815
H      0.682089    0.361262    0.592702
H      1.728431    1.627418   -0.095053
H     -4.362801    2.238952   -1.404849
H     -4.993294    3.727703   -0.605236
H     -2.803778    1.186719    1.649815
H      9.368432    1.127956    0.081669
H      8.200098    0.740812   -1.057907
H      1.289180    0.518405    0.939997
H      1.783592   -0.704291   -0.326046
H      1.140602    0.856058   -0.863464
H     -1.240958    1.616618    0.264715
