22

C     -1.691909   -0.672517    0.352680
C     -2.796027    0.119083   -0.304044
C      2.511152    1.246539   -0.387481
C      0.640055   -1.381927    0.405193
C     -0.379471   -0.538525   -0.357339
C      3.140675   -0.040857    0.075250
C      1.261943    0.812268    0.339677
N      1.819051   -0.549178    0.251506
O     -2.511955    1.477945   -0.345981
O      4.279739   -0.515796    0.249683
O      0.103546    0.748089   -0.405437
H     -1.597118   -0.381757    1.417861
H     -1.990989   -1.740582    0.307917
H     -3.023711   -0.268611   -1.316888
H     -3.730188    0.008498    0.283909
H      2.440708    1.285834   -1.472536
H      3.027910    2.078031    0.124200
H      0.756198   -2.384697   -0.027180
H      0.332975   -1.403654    1.482577
H     -0.426829   -0.956587   -1.380211
H      1.186872    1.123181    1.379645
H     -3.352626    1.935220   -0.636287
