44

C     -4.547888    2.205319    0.459030
C     -3.602743    1.101790    0.032448
C      1.364778   -3.119367   -1.530247
C     -0.002207   -3.190009   -1.416547
C      2.096772   -2.041094   -1.081953
C      2.099987    2.303812    1.212936
C      3.458720    2.398394    1.037642
C     -2.125095   -2.191286   -0.691062
C     -2.812767    0.680701    1.240507
C     -2.456760   -1.609817    0.638325
C      0.000929    1.069792    0.959416
C      5.494601    0.343909   -1.058154
C     -0.638522   -2.128602   -0.829103
C      1.440813    1.162202    0.717499
C      1.400615   -0.990683   -0.491454
C     -0.753457    0.073890    0.178404
C      4.171561    1.412359    0.397072
C      0.032307   -1.031597   -0.366101
C      2.117978    0.150938    0.067873
C      3.499428    0.289316   -0.087044
N     -1.865368   -0.373120    0.952081
O      5.509543    1.226664    0.075264
O      4.429848   -0.544897   -0.685549
H     -3.940715    2.900035    1.109411
H     -4.903586    2.793145   -0.432593
H     -5.405143    1.835349    1.044765
H     -2.999765    1.495938   -0.791509
H     -4.255285    0.257266   -0.313566
H      1.857350   -3.978938   -2.004764
H     -0.575996   -4.054049   -1.773361
H      3.150856   -2.064273   -1.205736
H      1.529552    3.075374    1.715872
H      3.963722    3.282069    1.419823
H     -2.421912   -3.281552   -0.635193
H     -2.668754   -1.781898   -1.548609
H     -3.520090    0.293219    1.998240
H     -2.328109    1.573921    1.664657
H     -2.184935   -2.363803    1.423888
H     -3.584597   -1.545436    0.699586
H     -0.416899    2.103816    0.780951
H     -0.131458    0.934599    2.077777
H      6.426633   -0.203436   -1.191960
H      5.265414    0.929455   -1.954348
H     -1.169358    0.600585   -0.752349
