30

C      4.449005    0.669873   -0.239810
C     -3.797516    0.162883   -1.307213
C     -2.755911   -0.104616    0.930197
C     -0.194609    0.226003   -0.100555
C      1.115878   -0.312498   -0.531153
C      1.882660   -0.375459    1.803630
C      3.540499   -0.252300   -0.023806
C     -1.327813   -0.157779   -1.043629
C     -2.580938    0.465193   -0.464585
C      2.187573    0.132747    0.430009
Br     1.801725   -2.308800    1.730144
Br    -1.477237   -2.099688   -0.944941
Cl     3.933062   -1.928499   -0.271846
Cl    -2.319242    2.218179   -0.384173
Cl     2.142757    1.939464    0.460092
H      4.232860    1.719074   -0.093084
H      5.443554    0.406106   -0.571985
H     -3.483580   -0.035585   -2.334982
H     -4.401884   -0.648745   -0.852526
H     -4.439532    1.070961   -1.286203
H     -2.352062   -1.135980    1.006361
H     -3.832479   -0.049731    1.222217
H     -2.210944    0.525970    1.661241
H     -0.477051   -0.223947    0.878512
H     -0.140419    1.327684   -0.045772
H      1.119286   -1.430217   -0.624798
H      1.372455    0.121893   -1.543221
H      2.759041   -0.058963    2.449824
H      0.948033    0.025283    2.171847
H     -1.137168    0.111493   -2.079789
