57

C     -3.407069   -5.981319   -0.374815
C     -5.994841    4.408698   -0.428255
C      6.963343    1.316330    0.757372
C      7.063153    0.576237   -0.409653
C      5.746192    1.764816    1.209183
C      2.785425   -0.850573   -1.047832
C      5.923608    0.290682   -1.120093
C      4.600889    1.449664    0.450158
C      3.471434    0.388263   -1.493218
C      2.156264   -0.900384    0.271619
C     -1.199709   -2.481653   -0.976616
C     -1.602522   -1.803810    1.221511
C     -2.550569    2.098184   -0.861542
C     -2.274480    2.116835    1.482616
C     -1.931289   -3.642823   -0.782819
C     -2.333681   -2.948295    1.441572
C     -3.702974    2.871627   -0.717912
C     -3.407895    2.880526    1.659938
C      4.665436    0.728594   -0.694568
C     -1.013610   -1.529595    0.016814
C     -1.833528    1.719714    0.252889
C     -2.511278   -3.892974    0.435850
C     -4.115807    3.251849    0.537683
C      0.986958   -0.089361    0.602109
C     -0.228425   -0.351063   -0.291141
C      0.728738    1.278026    0.308895
N     -0.665350    0.928915    0.091871
O      1.202768    2.461307    0.196766
O     -3.245403   -5.049586    0.649287
O     -5.265544    4.027439    0.735795
H     -2.482822   -6.490498   -0.695561
H     -3.923121   -5.479401   -1.237968
H     -4.151045   -6.741631   -0.002063
H     -5.346784    4.996071   -1.113507
H     -6.823296    5.072398   -0.070732
H     -6.407759    3.545947   -0.975700
H      7.873592    1.547856    1.328765
H      8.056442    0.259631   -0.701200
H      5.646345    2.342410    2.112085
H      3.598886   -1.656064   -1.041107
H      2.115069   -1.239666   -1.879187
H      6.010626   -0.283186   -2.020181
H      3.673295    1.822212    0.854597
H      2.788572    1.258110   -1.472142
H      3.855970    0.239129   -2.549451
H      1.887002   -1.980981    0.526422
H      2.950109   -0.678079    1.036532
H     -0.755948   -2.330684   -1.972581
H     -1.479256   -1.090667    2.010479
H     -2.280470    1.832755   -1.872725
H     -1.718126    1.825401    2.355448
H     -2.053731   -4.369090   -1.601329
H     -2.782959   -3.124655    2.407739
H     -4.288325    3.184615   -1.579136
H     -3.730442    3.180200    2.660659
H      0.660843   -0.336595    1.663215
H      0.097093   -0.341806   -1.365791
