43

C     -1.453136   -3.996561    0.394332
C      2.641335   -0.067240    2.411490
C      3.591654    0.657707    1.697375
C      1.492441   -0.493239    1.758443
C     -2.817982   -1.066531   -1.425083
C      4.191436    1.682613   -0.664034
C     -2.687597   -2.217048   -0.452377
C      3.156652    1.997233   -1.694990
C     -3.120857    1.256416   -0.889606
C     -0.604538    1.592520    0.184217
C     -0.496691   -1.886985    0.551868
C      3.376279    0.938469    0.360842
C     -2.249024    0.197042   -0.853416
C      1.260845   -0.223759    0.431117
C     -0.980499    0.368232   -0.311915
C      0.029221   -0.690951   -0.217119
C     -2.760185    2.493903   -0.396079
C     -1.511120    2.641093    0.131401
C      2.209459    0.494375   -0.263354
Cl    -3.919616    3.832561   -0.463199
N     -1.366027   -2.706617   -0.262320
O     -1.137131    3.895964    0.635689
O      2.254090    0.913181   -1.592608
H     -2.162766   -4.620684   -0.186390
H     -1.815028   -3.889677    1.439601
H     -0.436975   -4.455977    0.429321
H      2.822223   -0.279940    3.456575
H      4.495642    0.996016    2.199523
H      0.785568   -1.055763    2.368385
H     -2.337897   -1.313331   -2.370346
H     -3.922137   -0.913584   -1.577319
H      4.663043    2.590285   -0.231270
H      4.960704    0.966244   -1.013656
H     -3.272444   -3.061885   -0.910287
H     -3.229404   -1.989890    0.493719
H      3.560388    2.051319   -2.728873
H      2.656659    2.950202   -1.384660
H     -4.103906    1.097691   -1.316331
H      0.375989    1.758252    0.619297
H     -0.972505   -1.579294    1.489114
H      0.385375   -2.505676    0.807150
H      0.227585   -1.032882   -1.264201
H     -1.779124    4.676197    0.609975
