59

C     -3.824121    3.945391   -0.178953
C     -6.069589   -1.519234   -0.041945
C      6.800509    2.125681    1.162590
C     -3.130041    2.631474   -0.493466
C     -5.625942   -0.244122    0.643514
C     -2.454902    2.118077    0.752534
C     -4.545927   -0.440213    1.653148
C     -0.886494   -1.813160   -1.001615
C      0.401094   -1.063690   -0.844872
C      3.146887   -0.297484   -0.311370
C      3.930073   -2.254978   -1.313361
C      4.461408    0.182841   -0.234428
C      5.220141   -1.807369   -1.248260
C     -1.751531    0.822362    0.550288
C     -3.275584   -0.984245    1.168509
C     -2.138982   -1.045853   -0.935963
C      2.858252   -1.523611   -0.851790
C      5.531939   -0.546165   -0.694539
C      1.508558   -2.110689   -0.979911
N      6.859730   -0.115659   -0.646884
N     -2.474079   -0.322974    0.227968
O      1.395876   -2.643963   -2.261910
O      9.055524    0.815201    0.495996
O      7.487344   -0.303885    1.937887
S      7.575671    0.601657    0.713895
H     -4.101616    4.431104   -1.145778
H     -3.107554    4.594266    0.359424
H     -4.718170    3.792396    0.457831
H     -6.890067   -2.014525    0.545456
H     -6.491604   -1.314445   -1.050235
H     -5.253431   -2.235725   -0.150714
H      5.982932    2.017146    1.895984
H      6.409626    2.664381    0.276378
H      7.561502    2.817902    1.626462
H     -2.382838    2.851392   -1.298034
H     -3.859610    1.964008   -0.949294
H     -6.538920    0.123291    1.185839
H     -5.312381    0.437399   -0.145039
H     -3.204078    2.148190    1.552919
H     -1.661036    2.866467    1.042151
H     -4.480129    0.413181    2.380238
H     -4.971460   -1.264090    2.349391
H     -0.832930   -2.669817   -0.291708
H     -0.872342   -2.324081   -2.017852
H      0.501290   -0.659862    0.195603
H      0.554843   -0.234705   -1.543473
H      2.329004    0.290031    0.054153
H      3.764688   -3.238814   -1.755136
H      4.610103    1.158553    0.201337
H      6.075321   -2.377187   -1.608805
H     -1.017455    0.684052    1.396479
H     -1.049549    1.021232   -0.336816
H     -3.512033   -2.008451    0.721258
H     -2.649535   -1.192793    2.112467
H     -2.140575   -0.288016   -1.789295
H     -3.046574   -1.677166   -1.198761
H      1.322656   -2.870470   -0.195789
H      7.456258   -0.247643   -1.518619
H      1.469852   -1.862591   -2.881470
