37

C      5.411440    0.312989    0.108296
C      0.246071   -1.423466    1.164933
C     -2.862284    1.400148    1.519793
C      1.549800   -0.769028   -1.727462
C      4.092099    0.515551    0.742511
C     -3.725880    0.785653    0.588618
C      2.823573   -0.405661   -1.138200
C     -1.502492    1.275063    1.491130
C      0.380030   -0.604439   -1.072092
C      2.869299    0.137087    0.066339
C     -3.132516    0.031397   -0.390625
C     -0.953221    0.491205    0.475822
C     -1.740034   -0.124639   -0.467626
C      1.584097    0.559855    0.717268
C     -3.919987   -0.649696   -1.405922
C      0.377362   -0.075605    0.303071
N     -3.292237   -1.357370   -2.317420
O      4.060501    1.022136    1.877644
O     -5.080004    0.985246    0.729208
O      4.032444   -0.607727   -1.800731
O     -0.677194    1.889141    2.418932
O      1.649908    1.435714    1.575313
O     -5.280237   -0.612334   -1.489438
O     -0.940094   -0.809371   -1.399061
H      5.542857    0.864622   -0.841240
H      6.221717    0.626812    0.801430
H      5.556101   -0.758397   -0.061120
H      1.074106   -2.047145    0.817167
H      0.231660   -1.176970    2.212902
H     -0.705512   -1.872970    0.852526
H     -3.315936    2.008984    2.305223
H      1.520924   -1.185805   -2.721828
H     -3.810498   -1.856481   -3.055611
H     -5.762958    0.614365    0.151181
H      4.238912   -0.154371   -2.703807
H     -0.982704    2.458753    3.166446
H     -5.779115   -0.923246   -2.313186
