49

C      1.091147   -2.996174   -0.975786
C     -2.790082    0.493380   -3.361437
C     -3.280833    2.063886   -1.572883
C      6.165356    0.632635    1.434451
C      5.257076    1.107165    2.334605
C      5.754945    0.209304    0.194152
C      3.919632    1.148130    1.965187
C      4.404442    0.256560   -0.165897
C     -3.979625   -1.101944    2.301572
C     -4.169940   -0.905393    0.963833
C     -1.694728   -0.381715    2.028842
C     -2.596001   -1.003161    4.235281
C      2.027754    0.758978    0.353297
C      0.066627   -1.965108   -0.847216
C      3.487917    0.731553    0.737135
C     -2.714668   -0.826753    2.815771
C     -1.863807   -0.172058    0.653767
C     -3.120032   -0.444990    0.159491
C     -0.751863    0.307854   -0.154708
C     -1.140711    0.805464   -1.514511
C     -2.562551    0.743205   -1.882875
N     -2.486468   -1.150007    5.382086
N      0.315660   -0.682251   -0.255687
O     -1.082432   -2.202766   -1.268503
O     -0.421039    0.072239   -2.457167
O      1.579134   -0.506078    0.138052
O     -3.316148   -0.239884   -1.190638
H      2.037893   -2.764691   -0.420333
H      1.428324   -3.179855   -2.028031
H      0.673181   -3.978310   -0.625034
H     -2.559122    1.418954   -3.938813
H     -2.104257   -0.290631   -3.695512
H     -3.867877    0.227624   -3.541829
H     -4.376542    1.938045   -1.781945
H     -2.895896    2.799125   -2.303078
H     -3.072883    2.293440   -0.520909
H      7.220165    0.609856    1.746615
H      5.523648    1.455259    3.322215
H      6.460531   -0.166517   -0.523690
H      3.207275    1.527894    2.682668
H      4.150603   -0.091821   -1.159140
H     -4.795580   -1.460507    2.934711
H     -5.142727   -1.109713    0.520941
H     -0.714783   -0.175700    2.453256
H      1.919889    1.482499   -0.450393
H      1.482647    1.194004    1.249352
H     -0.295348    1.188798    0.365827
H     -0.817986    1.871365   -1.665933
H      0.440083    0.458813   -2.671159
