29

C      2.452693    0.000537   -0.924934
C      3.776061    0.327027   -0.274835
C     -2.841204   -0.855694    0.434774
C     -1.453057   -0.466652   -0.058416
C      1.410406    0.138287    0.172038
C     -3.831944    0.133713   -0.066199
C      3.360170    1.211889    0.842746
C      0.790709   -1.159344    0.505852
N     -3.442995    1.120110   -0.794593
N     -5.203692    0.011049    0.244525
N      4.003633    2.256455    1.308271
N     -0.451375   -1.387499    0.394609
N      2.122832    0.691887    1.302778
O      1.614431   -2.177314    0.964177
H      2.467977   -1.041820   -1.337289
H      2.246872    0.734296   -1.757353
H      4.481576    0.825379   -0.966158
H      4.175557   -0.608954    0.160167
H     -2.867253   -0.821564    1.544883
H     -3.072445   -1.874434    0.076474
H     -1.295099    0.576045    0.268711
H     -1.475087   -0.460601   -1.173808
H      0.674709    0.898442   -0.145211
H     -4.125611    1.816421   -1.149585
H     -5.708433    0.812652    0.699034
H     -5.713548   -0.883514    0.018932
H      4.911597    2.537726    0.880692
H      1.778670    0.705366    2.287813
H      1.213849   -3.059890    1.270739
