33

C     -2.623562    1.319143   -0.772497
C     -3.171771   -0.508954    0.774251
C      2.978665   -0.620144    1.258074
C      1.903309   -0.842100    0.218953
C      4.166289    0.128038    0.641590
C     -1.770882   -0.966301   -1.160581
C     -0.836700    0.367765    0.687010
C      0.253407    0.885502   -0.160100
C     -2.096151    0.092352   -0.103871
N      1.389795    0.357760   -0.337059
O      4.634646   -0.687335   -0.395662
O     -1.288614   -2.077632   -0.496269
O     -1.142154    1.359097    1.637874
O     -0.000921    2.091800   -0.840273
H     -3.694739    1.128926   -1.038279
H     -2.566975    2.186762   -0.108084
H     -2.089910    1.525352   -1.722365
H     -2.803747   -1.445089    1.242338
H     -3.540588    0.193777    1.533843
H     -4.006044   -0.820324    0.095954
H      2.647189   -0.064835    2.132291
H      3.391285   -1.591347    1.597758
H      2.401188   -1.414215   -0.617755
H      1.151123   -1.529332    0.646551
H      3.814187    1.097312    0.277714
H      4.967890    0.200037    1.379346
H     -2.641378   -1.185686   -1.792362
H     -0.958704   -0.558672   -1.806886
H     -0.523974   -0.524595    1.232236
H      4.395338   -0.324232   -1.276055
H     -2.018549   -2.701435   -0.252477
H     -1.067852    2.265812    1.273354
H      0.748907    2.662796   -1.171136
