21

C     -0.758556   -0.936440    0.050720
C     -2.234031   -0.640380    0.067885
C      1.495555   -0.035193    0.363800
C      2.040582   -0.508751   -0.884925
C     -0.309236    1.446235   -0.467089
C      0.040695    0.304718    0.389998
Cl     2.396256    1.335299    1.052297
O     -2.703772    0.296462   -0.653102
O     -3.120408   -1.372057    0.858558
O      1.442512   -0.610619   -1.968726
O      3.389012   -0.898604   -0.897528
O     -0.078469    1.494781   -1.686843
O     -0.941929    2.539575    0.129607
O     -0.315176    0.599229    1.722580
H     -0.454333   -1.326359   -0.926534
H     -0.585202   -1.740543    0.784788
H      1.624775   -0.886022    1.112305
H     -4.121864   -1.385411    0.731432
H      3.836384   -1.234822   -1.758430
H     -0.968888    3.429056   -0.361546
H      0.326094    0.129847    2.340752
