49

C      0.885161   -0.208647   -3.220533
C     -3.064898   -2.915398    0.832570
C     -2.909061   -0.888456    2.200761
C      6.180691    0.272042    1.012880
C      5.642568   -0.963392    1.364307
C      5.414977    1.232569    0.370598
C      4.306438   -1.221166    1.057821
C      4.086508    0.931552    0.083284
C     -3.755488    2.863857   -0.744696
C     -4.092362    1.520295   -0.614890
C     -1.501389    2.298420   -0.196023
C     -2.026301    4.621107   -0.633452
C      2.123486   -0.560961    0.106101
C     -0.130493   -0.239054   -2.119849
C      3.536992   -0.281330    0.423097
C     -2.450193    3.246299   -0.531692
C     -1.827951    0.956265   -0.064805
C     -3.121573    0.602108   -0.277942
C     -0.724977    0.042480    0.286571
C     -1.162028   -1.368471    0.516474
C     -2.623211   -1.446357    0.812536
N     -1.682743    5.715949   -0.695404
N      0.220609    0.093467   -0.806827
O     -1.317270   -0.568535   -2.380650
O     -0.833472   -2.240226   -0.504246
O      1.514012    0.483516   -0.566920
O     -3.420378   -0.758931   -0.133369
H      1.516589    0.681763   -3.070681
H      1.504814   -1.142195   -3.212582
H      0.346476   -0.167725   -4.179783
H     -3.471078   -3.188468   -0.157537
H     -3.881743   -3.011347    1.588718
H     -2.198661   -3.544821    1.084345
H     -2.271405   -0.033796    2.452493
H     -2.733062   -1.717041    2.912104
H     -3.965793   -0.546453    2.207313
H      7.216026    0.462096    1.253943
H      6.246902   -1.705755    1.867502
H      5.866575    2.185829    0.118390
H      3.863803   -2.167086    1.318449
H      3.488771    1.665924   -0.414959
H     -4.512986    3.577443   -1.007765
H     -5.105942    1.199276   -0.776816
H     -0.480252    2.621408   -0.034280
H      1.575378   -0.692506    1.072716
H      2.093903   -1.466472   -0.526254
H     -0.186695    0.397632    1.208800
H     -0.628297   -1.753916    1.444296
H     -1.550976   -2.872790   -0.724116
