48

C      2.914114   -3.587256   -0.333990
C      2.724012    3.695437   -0.676284
C     -3.991124   -0.355889   -0.166866
C     -2.433983    1.485905   -0.811304
C     -1.985617   -0.841100   -1.450370
C     -2.470996    0.726217    2.528550
C     -1.873581   -2.052575    1.637108
C      2.474101   -1.176706    0.423175
C      1.560135    1.762340    0.426381
C      3.298919   -2.166504   -0.333577
C      1.945235    2.444034   -0.895123
C      1.603830   -0.457293   -0.585072
C      0.710768    0.583178    0.063545
C      2.342670    0.161535   -1.676694
C     -2.540068    0.048420   -0.376509
O      4.268292   -1.775731   -0.931170
O      2.667631   -0.547902   -2.682779
O      2.689759    1.494075   -1.632686
O     -0.032447    0.016495    0.964816
Si    -1.570213   -0.223700    1.208749
H      3.024763   -4.063263    0.638729
H      3.555649   -4.130445   -1.078379
H      1.872293   -3.728273   -0.696740
H      3.809696    3.534645   -0.939850
H      2.692659    4.080421    0.346652
H      2.392943    4.475827   -1.418309
H     -4.546736    0.009298   -1.051977
H     -4.412603    0.114758    0.749723
H     -4.058666   -1.451219   -0.054148
H     -3.496356    1.861420   -0.926083
H     -1.900051    2.118848   -0.065258
H     -1.999096    1.573042   -1.809894
H     -2.835805   -1.282529   -2.044154
H     -1.377288   -0.305599   -2.189446
H     -1.458326   -1.717709   -0.982380
H     -3.480186    0.236820    2.619964
H     -2.685094    1.770512    2.222008
H     -2.007381    0.635993    3.520220
H     -2.972471   -2.187909    1.502585
H     -1.631600   -2.215243    2.701479
H     -1.274307   -2.657950    0.930241
H      1.813393   -1.673566    1.152145
H      3.155954   -0.495276    0.930911
H      2.515619    1.410947    0.860690
H      1.078106    2.485023    1.087589
H      1.002532    2.613837   -1.490560
H      0.870628   -1.199085   -1.038856
H      0.050295    0.953695   -0.774027
