28

C      2.442606   -0.584482   -0.450444
C      1.036528   -0.129526   -0.773586
C      0.885866    1.262206   -0.157383
C     -0.476053    1.841841   -0.389706
C     -1.582429    0.842943   -0.422007
C     -1.179895   -0.413968    0.284666
C     -1.485945   -2.691890    0.279157
C     -0.083999   -2.395076    0.009431
N     -2.169539   -1.450347    0.214180
N      0.030451   -0.992819   -0.207572
O      2.624185   -0.600574    0.928887
O      1.826994    2.074434   -0.784619
O     -0.731086    2.742487    0.661661
O     -2.715668    1.345725    0.258140
O     -1.978641   -3.846760    0.522858
O      0.867188   -3.243701   -0.025035
H      2.679637   -1.562158   -0.904189
H      3.126322    0.199824   -0.855353
H      0.896086   -0.039891   -1.857162
H      1.105402    1.146743    0.942408
H     -0.445650    2.428535   -1.332832
H     -1.881444    0.613977   -1.462779
H     -1.020341   -0.190970    1.370927
H     -3.219870   -1.331707    0.129219
H      1.981975   -1.174878    1.403933
H      2.408262    2.546849   -0.156887
H     -0.364797    2.385825    1.525683
H     -2.576146    1.217356    1.248406
