41

C     -1.279850    3.577220    0.848102
C      2.651063   -1.641762    1.766378
C      3.807318   -1.350003    1.064389
C      1.460352   -1.100262    1.351323
C     -2.875162    1.071264    0.230402
C      4.772206   -0.072188   -0.919283
C     -2.144412    2.030741   -0.679053
C      4.087564    0.723672   -1.812672
C     -3.314930   -1.240425   -0.211905
C     -0.698538   -1.898939   -0.618473
C     -0.194211    1.516926    0.631745
C      3.793400   -0.526968   -0.044460
C     -2.352802   -0.285491   -0.108868
C      1.394246   -0.275973    0.254823
C     -1.000569   -0.588569   -0.311411
C      0.142171    0.333438   -0.235194
C     -2.978750   -2.538072   -0.519687
C     -1.653232   -2.884620   -0.728340
C      2.582111   -0.008656   -0.422582
Cl    -4.184238   -3.802363   -0.664538
N     -0.930543    2.536141   -0.084713
O     -1.259363   -4.176969   -1.040190
O      2.817122    0.742854   -1.501026
H     -2.363235    3.780795    0.874177
H     -0.717969    4.503858    0.592240
H     -0.996374    3.304526    1.906485
H      2.746873   -2.304201    2.637336
H      4.775672   -1.747458    1.344638
H      0.547298   -1.335052    1.911099
H     -2.725669    1.310771    1.297084
H     -3.943368    1.079922   -0.039126
H      5.823927   -0.308303   -0.880338
H     -1.989137    1.537930   -1.654745
H     -2.816081    2.896458   -0.849232
H      4.570203    1.249349   -2.651243
H     -4.339569   -0.981972   -0.053261
H      0.331082   -2.153346   -0.777446
H      0.795562    1.988338    0.901366
H     -0.651885    1.218674    1.586410
H      0.318141    0.696574   -1.279439
H     -2.006425   -4.877861   -1.110771
