32

C      2.230736    1.647654   -1.068388
C      1.214990    0.929215   -1.545814
C      1.984324   -0.184157    0.342935
C      3.543469    1.648093    1.039442
C     -0.296184   -2.320411   -1.150493
C      3.036558    0.825519   -0.122149
C      1.255319   -0.428118   -0.961921
C     -2.118480   -1.468236   -0.333623
C     -3.361758   -1.120054    0.144940
C     -1.128834   -0.508281   -0.296774
C     -2.626794    1.039905    0.660989
N     -4.381434   -2.109549    0.106824
N     -2.883651    2.215886    1.132715
N     -1.583174   -2.592024   -0.868552
N     -3.608040    0.120243    0.635309
N     -1.406000    0.707983    0.194445
N     -0.016520   -1.040439   -0.799437
O      4.277780    0.836758    1.875421
H      2.458815    2.678884   -1.315810
H      0.502420    1.344528   -2.255476
H      1.295895    0.286841    1.087668
H      2.428753   -1.089773    0.757395
H      2.719991    2.170372    1.532126
H      4.216644    2.419105    0.611710
H      0.427664   -3.015165   -1.595279
H      3.848104    0.283109   -0.618967
H      1.934406   -1.035614   -1.592461
H     -4.812372   -2.472602    0.982929
H     -4.677161   -2.453736   -0.830275
H     -3.828013    2.451049    1.486328
H     -4.569672    0.325478    0.983823
H      3.922217   -0.092464    1.780418
