38

C      4.921210   -0.682417   -0.654458
C      3.572901   -1.217996   -1.084174
C     -4.609065    0.472170    0.919020
C      4.677343   -0.508110    0.850845
C     -4.267579    1.944760    0.969854
C     -0.957212   -0.551398   -0.845454
C      2.023061    0.745023   -1.047533
C      2.624856   -0.406335   -0.253581
C     -3.428473   -0.091444    0.212773
C     -1.125032    0.601352   -0.122333
C     -2.004043   -1.465431   -1.041125
C     -3.233514   -1.243369   -0.518578
C     -2.395375    0.800912    0.400211
C     -0.040493    1.529488    0.069252
Cl    -1.756586   -2.935971   -1.974293
N     -4.317607   -2.138701   -0.691454
N      3.397353    0.170448    0.832127
N      1.137185    1.518279   -0.314583
O     -0.387382    2.678253    0.847596
O     -2.855310    1.880795    1.174367
H      5.749947   -1.372369   -0.853949
H      5.033686    0.317800   -1.089971
H      3.521706   -2.269052   -0.716830
H      3.399383   -1.134844   -2.164996
H     -5.551934    0.259616    0.396638
H     -4.658139    0.091344    1.977683
H      5.463993    0.080544    1.316052
H      4.516344   -1.500891    1.304620
H     -4.756867    2.486176    1.776832
H     -4.430932    2.379361   -0.040421
H     -0.030823   -0.840579   -1.309906
H      1.735486    0.433527   -2.075298
H      2.939401    1.410846   -1.260718
H      1.812036   -0.992797    0.164370
H     -4.199547   -3.134328   -0.985050
H     -5.304844   -1.823435   -0.525757
H      3.483724    1.200711    0.742085
H      0.301141    3.308061    1.178270
