38

C      5.164694    1.007749   -0.254078
C      3.802776    0.979213    0.437692
C     -4.911540    0.539912    0.671852
C      5.375861   -0.428079   -0.653756
C     -4.361901    0.566146    2.092344
C     -1.221303   -0.605688   -0.992793
C      1.804207   -0.431728   -0.133450
C      3.310061   -0.415737    0.230173
C     -3.726118    0.057741   -0.090228
C     -1.317734    0.015108    0.227267
C     -2.344620   -0.899338   -1.765210
C     -3.603682   -0.567250   -1.314293
C     -2.617137    0.336486    0.650114
C     -0.164456    0.335620    1.060004
Cl    -2.155335   -1.691068   -3.310127
N     -4.775592   -0.847698   -2.068579
N      4.002907   -0.844711   -0.971097
N      1.043357    0.135894    0.867023
O     -0.482726    0.990701    2.309521
O     -3.023239    0.967803    1.839373
H      5.155638    1.711554   -1.089402
H      5.958780    1.281251    0.471576
H      3.128766    1.753500    0.007820
H      3.967855    1.134074    1.536288
H     -5.736336   -0.183264    0.564370
H     -5.177985    1.549751    0.338294
H      5.684233   -0.988214    0.252616
H      6.061090   -0.569197   -1.489751
H     -4.909653    1.261683    2.736708
H     -4.409313   -0.456875    2.517860
H     -0.280647   -0.889931   -1.401765
H      1.620218   -1.538284   -0.285675
H      1.788851    0.062728   -1.140605
H      3.504515   -1.096102    1.064025
H     -5.113259   -0.103175   -2.718881
H     -5.231913   -1.759637   -1.941167
H      3.930446   -1.853659   -1.152493
H      0.260237    1.482721    2.757312
