29

C      0.759763   -0.528248    0.972898
C     -0.304659   -0.575678   -0.106567
C      1.990461   -1.297247    0.575785
C     -1.482864    0.231472    0.415418
C     -3.804474    1.539537    1.124765
C      2.641231   -0.781941   -0.675380
C     -3.645866    0.871784   -0.192129
C      3.085519    0.605140   -0.603939
I     -5.435384    0.697738    2.232054
N      3.775558   -1.648144   -0.938436
N     -2.561151    0.259164   -0.526760
O     -4.711338    0.919938   -1.077489
O      4.301760    0.872354   -0.765115
O      2.266353    1.699633   -0.366582
H      0.329606   -1.041554    1.858913
H      0.975007    0.507355    1.289952
H      0.055623   -0.197774   -1.070924
H     -0.658439   -1.617766   -0.217076
H      2.690749   -1.313147    1.413455
H      1.674437   -2.342774    0.378475
H     -1.104741    1.282518    0.518970
H     -1.815394   -0.195549    1.370855
H     -4.088477    2.601041    0.897494
H     -2.866429    1.518340    1.715054
H      1.924445   -0.966622   -1.522884
H      3.528915   -2.652557   -0.728470
H      4.511958   -1.393291   -0.238327
H     -4.681719    0.487811   -2.002325
H      2.649550    2.458467    0.209518
