56

C      6.195928    1.523532   -1.713669
C      5.485662    1.396239   -0.399518
C     -2.989207    0.632353   -3.303275
C     -5.852524   -0.371472    3.318106
C     -4.219101    0.981094   -3.786605
C     -7.063008   -0.014794    2.778486
C     -2.805827    0.283645   -1.958769
C     -4.713351   -0.402034    2.523665
C     -5.278428    0.979026   -2.907500
C     -7.173123    0.314399    1.463435
C      3.139061   -0.528476    1.853277
C      2.244390   -1.199782   -0.229864
C      1.941363    0.057721    2.136089
C      1.020661   -0.594883    0.070706
C     -2.392958   -0.399050    0.822401
C     -1.552290    0.844600    1.082713
C      4.558379   -1.813769    0.297476
C      3.298232   -1.170445    0.649270
C      0.833572    0.045328    1.250817
C     -3.850529    0.277630   -1.070461
C     -4.827830   -0.069886    1.197555
C     -5.089682    0.629847   -1.565591
C     -6.054007    0.293994    0.641908
C      5.531781   -0.908848   -0.419822
C      6.746172   -1.702110   -0.703629
N     -3.703127   -0.071401    0.296108
O      6.699425   -2.778229   -1.335489
O      7.965829   -1.238233   -0.256473
O      5.830738    0.229622    0.284955
O     -0.313112    0.647820    1.602798
O     -6.165032    0.631892   -0.704160
H      6.371264    2.575987   -2.016182
H      5.600311    1.065825   -2.552317
H      7.213359    1.047626   -1.701447
H      5.649917    2.298094    0.193446
H      4.393734    1.331705   -0.602894
H     -2.144260    0.627204   -3.976659
H     -5.761519   -0.632619    4.358821
H     -4.398171    1.257717   -4.824290
H     -7.938716   -0.002269    3.435546
H     -1.816981    0.008779   -1.653479
H     -3.758814   -0.676341    2.947721
H     -6.265283    1.251246   -3.263817
H     -8.126846    0.597234    1.031029
H      3.940234   -0.465676    2.604786
H      2.301263   -1.688323   -1.196071
H      1.791503    0.566724    3.072373
H      0.212050   -0.624234   -0.648766
H     -2.392960   -0.997219    1.724596
H     -1.928650   -1.047520    0.027258
H     -2.175428    1.543492    1.729466
H     -1.453493    1.427423    0.115316
H      5.017502   -2.241053    1.189584
H      4.375715   -2.679837   -0.403146
H      5.071830   -0.572171   -1.395402
H      8.774379   -1.828563   -0.110414
