56

C      5.525790   -3.017998    0.741818
C     -1.949666    2.589050   -0.270118
C     -5.690630   -3.439560   -1.605396
C      4.265378   -2.590387    0.074575
C      6.382479    1.089625   -0.733258
C      5.789771    2.256831   -0.400567
C      5.702519   -0.079992   -0.470851
C      4.524799    2.245144    0.190337
C     -2.090403   -1.308944   -0.943154
C     -3.256525   -2.035783   -1.193786
C      1.237558    2.935690    0.210443
C      1.779939    2.118669    1.376488
C     -0.804095    0.477067    0.285866
C     -3.189798   -0.040212    0.716288
C     -0.770640    1.716152   -0.579657
C     -2.058965   -0.317461    0.006537
C      4.467493   -0.117917    0.104135
C      3.833155    1.092780    0.457692
C     -4.390682   -1.743807   -0.468550
C     -4.373399   -0.750743    0.488092
N     -7.099503    0.141874    0.395890
N      0.476086    2.250610   -0.727403
O     -5.497609    0.754436    2.369099
O     -6.245494   -1.541393    2.250849
O     -5.589208   -2.418887   -0.655783
O      3.838297   -1.295815    0.340464
O      2.600462    1.071784    1.025622
S     -5.816065   -0.363771    1.416778
H      5.835403   -2.255967    1.499085
H      5.277990   -3.922523    1.360891
H      6.288058   -3.263592    0.005807
H     -2.903716    2.117630   -0.619406
H     -2.066531    2.710483    0.829936
H     -1.907112    3.585142   -0.708154
H     -5.167099   -4.335759   -1.192725
H     -5.188660   -3.106762   -2.534796
H     -6.749892   -3.678414   -1.847335
H      4.428362   -2.644588   -1.042244
H      3.423775   -3.317260    0.243260
H      7.376182    1.056325   -1.198217
H      6.323244    3.185356   -0.605517
H      6.240097   -0.998548   -0.766502
H      4.163424    3.252037    0.442352
H     -1.204885   -1.550597   -1.523041
H     -3.265097   -2.803438   -1.935612
H      2.100469    3.377895   -0.313065
H      0.720228    3.867102    0.628084
H      0.973887    1.868257    2.093058
H      2.452130    2.809612    2.006406
H      0.068109   -0.186113    0.153805
H     -0.858838    0.723242    1.382801
H     -3.249029    0.727286    1.484178
H     -1.053733    1.281097   -1.623597
H     -7.936344   -0.452222    0.446634
H     -6.781934    0.333857   -0.587533
H      1.060463    1.943420   -1.538337
