28

C     -0.902104   -0.561999   -1.196658
C     -3.299242   -0.351872   -1.460057
C     -1.253273    0.570065    2.699245
C     -2.070253   -0.766663   -1.919153
C     -0.960176    0.067171    0.004646
C     -3.331287    0.290867   -0.224954
C      3.422294   -0.401818   -0.702514
C      1.480492   -0.141479    0.411262
C      2.311471    0.404157   -0.550849
C     -2.197113    0.505016    0.506860
C      0.185614    0.361160    0.898421
C      3.273479   -1.440243    0.164487
Cl    -1.992780   -1.580823   -3.471911
Cl    -4.857522    0.849401    0.424183
Cl     4.729064   -0.079247   -1.820119
Cl     4.435943   -2.753848    0.352555
N      2.129843   -1.274379    0.811566
N      2.076091    1.604629   -1.266100
O      1.154942    1.666122   -2.259974
O      2.724905    2.612693   -0.975332
O     -2.127636    1.130754    1.739444
O     -0.087917    0.059011    2.221656
H      0.071999   -0.885538   -1.551500
H     -4.188743   -0.519619   -2.032772
H     -0.983579    1.324920    3.489861
H     -1.776738   -0.243894    3.282270
H      0.256847    1.493669    0.884374
H      1.775378   -1.938213    1.541061
