59

C     -2.915798    5.121443   -1.189545
C     -1.345470   -2.154584   -1.348280
C      1.635588   -0.908109   -2.109310
C     -5.734898   -2.258862    1.157808
C      0.871121   -2.737752    0.514943
C      5.123638    2.293510    0.267735
C     -0.478798   -2.193780    0.916465
C      5.768948    2.541568    1.462360
C     -2.843596    0.403731   -0.560804
C      2.197168    0.660759   -0.372016
C      4.758689    0.636632    1.654672
C     -2.441371    3.870749   -0.525202
C      4.486289    1.088986    0.392794
C      1.830076   -1.604937    0.292564
C     -2.351925   -0.706500    0.321714
C     -1.848647    1.544158   -0.525606
C      3.638453    0.343367   -0.606005
C     -0.595485    0.961719   -1.118780
C     -0.055757   -0.201370   -0.353711
C     -3.447962   -1.666063    0.480742
C      3.150440   -2.030087   -0.170114
C     -1.054187   -1.308797   -0.172292
C      1.325196   -0.575542   -0.692800
O     -2.157574    3.890921    0.707255
O     -0.095626    1.418492   -2.125845
O     -3.311243   -2.858438    0.140862
O      3.510463   -3.224230   -0.145418
O     -4.673049   -1.302284    1.009497
O      5.519007    1.529479    2.245424
O     -2.295143    2.669752   -1.206780
O      3.976877   -1.004936   -0.640369
H     -2.613259    5.071305   -2.235200
H     -4.026857    5.179727   -1.052105
H     -2.475706    5.969214   -0.643544
H     -0.564132   -2.165602   -2.148362
H     -1.360645   -3.217279   -1.023994
H     -2.352009   -1.947532   -1.768994
H      1.814197   -2.016438   -2.255911
H      2.628787   -0.480880   -2.457363
H      0.934461   -0.497071   -2.860592
H     -6.684955   -1.694945    0.990018
H     -5.672881   -3.017419    0.350020
H     -5.741973   -2.688111    2.170824
H      1.251628   -3.316077    1.384467
H      0.814969   -3.449455   -0.328214
H      5.090995    2.897558   -0.631265
H     -0.291809   -1.514546    1.790615
H     -1.149973   -2.991222    1.233034
H      6.353926    3.424427    1.650431
H     -3.846274    0.696668   -0.230063
H     -2.848297    0.023615   -1.603491
H      2.068065    0.815087    0.729960
H      1.909222    1.535244   -0.952487
H      4.401132   -0.289611    2.065506
H      1.958227   -1.092494    1.275622
H     -2.089756   -0.217867    1.305786
H     -1.642113    1.734203    0.561870
H      3.960759    0.784748   -1.595915
H      0.028845    0.225759    0.703953
