47

C      3.357279   -2.075528    0.729162
C     -5.073147   -0.109827   -0.002050
C     -4.074091    2.193363   -1.287985
C      3.990105    1.930078    1.045679
C      4.188161    1.445685   -1.365332
C      0.885095    2.154818   -0.525733
C      2.162563    2.461028   -0.514669
C      1.412365   -3.648684    0.995446
C      1.910967   -2.382175    0.706407
C     -3.609990    0.157529    0.100977
C     -3.114446    1.086537   -0.985513
C      0.432480    0.808331   -0.213027
C      0.058818   -3.901946    0.965526
C      0.960809   -1.421406    0.394207
C     -1.334489   -0.725578    0.055659
C     -2.776539   -1.104893    0.051691
C     -0.916061    0.554144   -0.242363
C      1.403029   -0.131734    0.095302
C     -0.387444   -1.705228    0.372472
C      3.197968    1.476209   -0.190350
O     -0.345081   -5.075935    1.237528
O     -3.105731   -1.882388    1.164828
O     -1.847519    1.562659   -0.565451
O     -0.776215   -2.937821    0.660523
O      2.717087    0.221663    0.096854
H      3.880624   -3.035716    1.018508
H      3.775057   -1.824737   -0.261163
H      3.643502   -1.364040    1.533035
H     -5.589519    0.862493   -0.155566
H     -5.441001   -0.500207    0.970020
H     -5.311147   -0.807299   -0.834153
H     -3.560478    2.907646   -1.963805
H     -4.381957    2.738061   -0.378629
H     -4.925560    1.781272   -1.855209
H      3.426297    1.634249    1.957258
H      4.930704    1.349771    1.037870
H      4.124669    3.010616    1.075284
H      4.671930    2.444017   -1.366487
H      4.957005    0.696022   -1.172932
H      3.641798    1.342820   -2.303904
H      0.173974    2.951807   -0.779326
H      2.462818    3.514004   -0.762972
H      2.132024   -4.415005    1.241791
H     -3.406250    0.660380    1.073771
H     -2.962075    0.470705   -1.894279
H     -3.022864   -1.649974   -0.890702
H     -2.535524   -1.715785    1.931804
