41

C      0.675211   -3.297735   -1.467195
C     -3.095389    3.333485   -0.189437
C      3.395361    0.758773    2.062533
C     -3.460402    2.409086   -1.142540
C     -2.157342    2.976456    0.732242
C      3.379637   -0.479032    1.488199
C      2.596141    1.754928    1.543510
C     -2.893875    1.151971   -1.168524
C     -1.584993    1.702892    0.704379
C      2.560026   -0.699399    0.398759
C      1.775265    1.499085    0.436745
C     -1.933414    0.767645   -0.235717
C      1.747655    0.259102   -0.152795
C     -1.352361   -0.557785   -0.243067
C     -0.256184   -0.870821   -1.165251
C      0.908966    0.005313   -1.311874
C     -0.977881   -1.082997    1.105241
C     -0.148679   -2.282847    0.701864
N      0.127208   -2.215775   -0.699121
O      1.735504   -0.634973   -2.299050
O     -2.106273   -1.462626    1.789264
O      0.193195   -3.145625    1.535559
H      1.648797   -3.644707   -1.077100
H      0.749947   -2.963871   -2.532393
H      0.011151   -4.197898   -1.491386
H     -3.555296    4.327322   -0.183560
H      4.045134    0.945556    2.931650
H     -4.204136    2.703583   -1.866611
H     -1.873465    3.709177    1.481212
H      4.013457   -1.278316    1.895636
H      2.634761    2.722410    2.024137
H     -3.162691    0.408019   -1.905753
H     -0.869723    1.517877    1.473319
H      2.585115   -1.695818   -0.023967
H      1.179936    2.331299    0.090578
H     -2.214005   -1.251111   -0.582403
H     -0.694773   -1.055062   -2.198523
H      0.583617    0.941698   -1.839623
H     -0.354385   -0.434878    1.714021
H      2.674044   -0.566724   -2.056089
H     -2.324861   -2.407677    1.723131
