28

C      3.712255    0.515082    1.752405
C      1.918719    0.174025   -1.294497
C     -0.208222   -1.720317   -0.465220
C      0.817556    0.559387   -0.311580
C      2.686278    0.138356    0.715887
C     -2.326021   -1.219640   -0.080090
C     -3.699399   -1.183147    0.130812
C     -1.556038   -0.078399   -0.041601
C     -3.508283    1.130814    0.414347
Cl    -4.618905   -2.670634    0.068028
N     -4.101175    2.265274    0.656386
N     -1.456564   -2.226330   -0.346278
N     -4.264114    0.012327    0.376799
N     -2.190491    1.098437    0.212331
N     -0.251368   -0.387869   -0.279005
O      4.930556   -0.082384    1.365494
O      3.055349    0.596578   -0.564374
O      1.461596    0.718249    0.915190
H      3.876787    1.593053    1.845935
H      3.422692    0.025912    2.695892
H      2.022314   -0.928713   -1.384672
H      1.832340    0.690858   -2.249229
H      0.663015   -2.322322   -0.677058
H      0.430579    1.541197   -0.668507
H      2.649047   -0.960234    0.661997
H     -5.129140    2.314269    0.817205
H     -5.306747    0.071460    0.541146
H      5.137386    0.334711    0.477291
