72

C     -1.091741   -3.487467   -0.214040
C      0.372112   -3.211049    0.046272
C     -4.288133   -0.245188   -2.026752
C     -0.747479   -0.778879    3.105595
C      5.027653    1.129716    0.270459
C      4.556823    0.293760   -1.876696
C     -1.498672    2.520333   -0.948779
C      6.362096    0.837313    0.156128
C      5.900995   -0.024628   -2.047441
C     -0.253191    2.883369   -1.403779
C     -1.612273   -2.794194   -1.458297
C     -3.113146   -1.147102   -2.297681
C     -3.925555    1.190871   -2.143122
C     -1.380499    0.506858    3.687135
C      0.533259   -2.705034    1.430995
C      0.642224   -0.613176    2.690697
C     -0.796507    0.346236   -0.125560
C     -3.341007    1.996637    1.471598
C      4.095712    0.867952   -0.734893
C     -1.773689    1.281428   -0.320481
C      6.792304    0.254043   -1.019557
C      0.488969    0.695999   -0.577495
C     -3.208993    1.296574    0.142681
C      0.718488    1.918514   -1.188304
C     -2.000368    2.290176    2.073422
C      1.752273    0.017641   -0.521396
C      2.710942    1.225986   -0.479023
C      2.121804   -0.859640    0.633965
N     -2.854343   -2.078170   -1.198951
N     -3.972263    1.957570   -0.920656
N     -1.372174    1.631130    2.909756
N      1.153383   -1.369570    1.540635
O      8.134816   -0.061749   -1.184799
O     -1.407579    3.474959    1.607297
O      3.403497   -1.024687    0.612447
O      2.103675    1.961674   -1.529044
H     -1.727519   -3.128615    0.622468
H     -1.301420   -4.574765   -0.307744
H      0.942497   -4.128384   -0.196930
H      0.635694   -2.376916   -0.675756
H     -5.013116   -0.451249   -2.878811
H     -4.870300   -0.526864   -1.127842
H     -1.471229   -1.273275    2.450501
H     -0.794048   -1.461056    4.024496
H      4.690272    1.594477    1.208001
H      3.866609    0.082181   -2.665603
H     -2.299484    3.267082   -1.099252
H      7.051815    1.060512    0.972237
H      6.276595   -0.481247   -2.951704
H     -0.041359    3.824808   -1.884320
H     -0.874938   -2.040856   -1.788726
H     -1.792031   -3.503516   -2.259939
H     -2.196358   -0.555384   -2.494109
H     -3.243410   -1.753183   -3.248197
H     -2.898868    1.292362   -2.560809
H     -4.569645    1.751376   -2.876434
H     -0.730320    0.689579    4.606647
H     -2.368635    0.248205    4.147481
H     -0.467257   -2.744982    1.892765
H      1.233099   -3.410846    1.968962
H      1.285749   -0.808698    3.605835
H      0.789697    0.507408    2.542093
H     -0.978764   -0.668713    0.313103
H     -3.849819    1.321436    2.174274
H     -3.950621    2.881298    1.317859
H     -3.735697    0.348769    0.248569
H      2.068241   -0.513210   -1.466192
H      2.539320    1.735512    0.461955
H     -3.642131   -2.788556   -1.240492
H     -4.887520    2.292191   -0.633035
H      8.801490    0.128955   -0.450240
H     -0.710000    3.985959    2.086551
