20

C      2.547537    0.917891    0.279042
C     -1.012825   -1.235610    0.136183
C      0.247839   -1.971003    0.144568
C      1.421403    0.016148   -0.039244
C     -0.982871    0.009895   -0.831184
C     -1.938943    0.940887   -0.148259
N      1.390979   -1.184391    0.517296
N      0.378756    0.448166   -0.879730
O     -2.808512    0.442733    0.582360
O     -1.869284    2.368076   -0.268123
H      3.495710    0.565284   -0.142095
H      2.342617    1.989002    0.038449
H      2.694100    0.870539    1.372756
H     -1.297856   -0.815680    1.145302
H     -1.876847   -1.878935   -0.245624
H      0.345064   -2.418291   -0.856178
H      0.104525   -2.816367    0.882171
H     -1.393784   -0.297262   -1.762256
H      0.637205    1.178141   -1.658714
H     -2.424814    2.870776    0.405760
