32

C      4.463175    0.506818    0.304627
C      3.935451   -0.241924   -0.708507
C      3.585137    1.196941    1.115558
C      2.568192   -0.308048   -0.916920
C      2.237689    1.132353    0.910911
C     -3.351709    0.809213    0.233099
C     -3.420090    0.982022   -1.067996
C      1.678200    0.379450   -0.110449
C     -2.648751   -0.312538    0.895281
C     -2.776984    0.032857   -1.943415
C      0.224922    0.317398   -0.321237
C     -0.322281   -0.966558    0.221122
C     -1.807445   -1.144642   -0.000129
O     -1.955267    0.162927    2.002559
O     -2.814083    0.153763   -3.189781
O     -0.074807    0.458108   -1.667489
O      0.000517   -1.082496    1.576939
O     -2.110288   -1.027439   -1.355029
H      5.529848    0.575835    0.489683
H      4.613424   -0.786873   -1.350251
H      3.981966    1.793358    1.920461
H      2.226846   -0.911530   -1.725947
H      1.558523    1.675275    1.549929
H     -3.838556    1.530018    0.865716
H     -3.954086    1.830909   -1.519498
H     -3.482373   -0.956300    1.309556
H     -0.245513    1.205323    0.188313
H      0.188500   -1.802993   -0.298288
H     -1.999842   -2.229772    0.258190
H     -1.978330   -0.548095    2.691076
H      0.089552   -0.376404   -2.177031
H     -0.101536   -2.046955    1.818947
