38

C     -1.706278    1.893843    0.598650
C     -1.825373    0.457692   -1.360122
C      0.657127   -1.344159   -1.530141
C      2.318821    1.585929   -0.257794
C      2.692265    0.525519    0.743622
C      0.877086    1.546749   -0.663340
C     -1.329701   -1.868564    0.769377
C      2.261809   -0.815267    0.228882
C      0.160558   -1.893026    0.807130
C      0.190736    0.462230    0.144073
C     -1.919453   -0.507074    0.915658
C     -1.289850    0.530323    0.023966
C      0.793344   -0.876419   -0.118821
O     -3.275429   -0.577816    0.615857
H     -1.630748    2.608544   -0.244109
H     -2.744111    1.799745    0.917650
H     -0.995073    2.193409    1.377233
H     -2.146696   -0.591352   -1.626542
H     -1.194749    0.910311   -2.133244
H     -2.794739    1.038581   -1.385230
H      0.701198   -0.552042   -2.287969
H     -0.227433   -2.030301   -1.668839
H      1.541665   -2.013728   -1.745519
H      2.653446    2.597003    0.049432
H      2.917095    1.356966   -1.188364
H      3.822196    0.503914    0.760861
H      2.385869    0.744524    1.768899
H      0.732862    1.448942   -1.740997
H      0.406093    2.512892   -0.326829
H     -1.698094   -2.488456    1.620357
H     -1.679985   -2.344204   -0.154366
H      2.560407   -1.621588    0.950348
H      2.899840   -1.020814   -0.681421
H      0.549522   -1.678484    1.823732
H      0.496709   -2.894634    0.476124
H      0.421169    0.709636    1.223495
H     -1.757559   -0.145756    1.972761
H     -3.824547   -0.163066    1.325539
