27

C      4.251206    0.316974   -0.096598
C     -2.776134    0.727814    0.194362
C     -2.626893   -0.787482    0.065097
C     -1.459168    1.202491    0.820958
C     -0.203561   -1.427750    0.204366
C      2.912654    0.220607    0.514118
C     -1.351552   -1.057292   -0.711468
C     -0.371180    0.885266   -0.150673
C      0.549296   -0.151517    0.456354
N     -0.865499    0.166875   -1.324633
O      2.810788    0.424966    1.751192
O      1.772128   -0.088775   -0.243767
H      5.019273   -0.162030    0.556361
H      4.214749   -0.173900   -1.078290
H      4.501315    1.391171   -0.256452
H     -3.642020    1.015571    0.786963
H     -2.773952    1.130744   -0.842225
H     -2.600167   -1.269931    1.059471
H     -3.498272   -1.181690   -0.514192
H     -1.509782    2.257377    1.124074
H     -1.350647    0.588467    1.759885
H     -0.630226   -1.778214    1.174451
H      0.465599   -2.178358   -0.255890
H     -1.561316   -1.843285   -1.466734
H      0.159886    1.773499   -0.496718
H      0.639969    0.052538    1.525805
H     -0.076494   -0.054137   -1.935601
