57

C      7.164654    1.191604   -0.155513
C      1.765098    0.539755    1.779172
C      2.279090    1.319706   -0.573226
C      6.710696   -0.240523   -0.387065
C      5.227069   -0.266884    0.094412
C      4.652127   -1.602425   -0.102377
C      3.308705   -1.852366    0.395083
C     -6.173129    1.220284    0.065109
C     -4.733139    1.656751   -0.244935
C     -6.622230    0.123296   -0.858118
C     -0.489267    1.295383    0.569857
C     -1.868144    1.414390    0.391708
C      2.099614   -1.172212    0.005768
C     -4.506181   -0.778589    0.097294
C     -0.389647   -0.642315   -0.789169
C     -3.950479    0.452123   -0.624926
C      0.218622    0.289085   -0.009221
C     -5.832367   -1.130721   -0.562975
C     -2.508901    0.483605   -0.388882
C     -1.773824   -0.538325   -0.976926
C      1.742438    0.228344    0.260238
O     -6.490051   -1.997203    0.297990
O     -2.368122   -1.503577   -1.778814
H      6.677100    1.836528   -0.950352
H      6.772333    1.568603    0.809267
H      8.268548    1.301782   -0.179946
H      0.754713    0.492512    2.227572
H      2.204215    1.532163    1.982977
H      2.351556   -0.303484    2.254063
H      2.677745    0.904382   -1.523172
H      3.086438    1.905653   -0.062539
H      1.463910    2.010472   -0.907660
H      6.718082   -0.538572   -1.436932
H      7.313323   -0.907145    0.260134
H      5.180675    0.095948    1.100298
H      4.769264    0.420994   -0.642258
H      5.391846   -2.419082    0.268933
H      4.657562   -1.806253   -1.237557
H      3.361273   -1.910780    1.575944
H      3.124716   -3.010103    0.249344
H     -6.210193    0.847916    1.111587
H     -6.860689    2.102834    0.006435
H     -4.798634    2.382657   -1.112579
H     -4.407029    2.226520    0.615482
H     -6.512683    0.443674   -1.914488
H     -7.693629   -0.073562   -0.670876
H     -0.039775    2.063625    1.206117
H     -2.405858    2.234584    0.868095
H      2.006977   -1.283451   -1.154851
H      1.212471   -1.836908    0.328013
H     -4.669207   -0.483183    1.144934
H     -3.789369   -1.596815   -0.019418
H      0.121218   -1.476202   -1.290301
H     -4.117397    0.258046   -1.710252
H     -5.655286   -1.634843   -1.535880
H     -6.544033   -1.575727    1.209683
H     -1.872815   -2.261968   -2.200064
