40

C      0.719674    2.851855   -0.225516
C     -2.039087    2.287511   -0.382617
C      2.068709    3.071933   -0.056171
C     -3.371968    2.002079   -0.373814
C     -2.427882   -2.758484    0.394125
C     -1.165397   -2.479427    0.321526
C      3.112322   -1.665490    0.445768
C      0.269826    1.548757   -0.037406
C     -1.152179    1.247001   -0.215693
C      2.960758    2.076129    0.282617
C     -3.849812    0.680775   -0.198557
C     -3.440910   -1.731327    0.202556
C      3.460423   -0.254227    0.825569
C      1.763814   -1.676985   -0.253922
C      1.134935    0.543437    0.299183
C      2.506813    0.785553    0.467435
C     -2.946045   -0.367715   -0.032179
C     -1.590855   -0.092223   -0.044377
C      0.741907   -0.871874    0.540211
C     -0.625260   -1.178712    0.026194
O      4.323460    2.331323    0.447299
O     -5.198142    0.493370   -0.201667
O     -4.650165   -1.988019    0.234996
O      4.534568   -0.004900    1.426436
O      1.380510   -2.948646   -0.477263
O     -0.369015   -1.346406   -1.455742
H      0.128996    3.683767   -0.487526
H     -1.661402    3.288511   -0.515210
H      2.478598    4.077199   -0.191216
H     -4.084324    2.787360   -0.501515
H     -2.761575   -3.784576    0.603429
H     -0.475971   -3.324501    0.524462
H      3.850664   -2.016994   -0.308546
H      3.111439   -2.295891    1.352412
H      1.901987   -1.127436   -1.214203
H      0.838983   -1.157392    1.594809
H      4.629692    3.281031    0.306901
H     -5.735182   -0.284514   -0.107581
H      1.620158   -3.240129   -1.382912
H      0.006933   -0.441720   -1.632296
