27

C      4.171937   -0.776198    0.594117
C     -2.516285    1.260078   -0.346103
C     -2.595206    0.140022    0.685349
C     -1.383172    0.913626   -1.281761
C     -0.528464   -1.245660    0.333729
C      2.937691   -0.871532   -0.238771
C     -1.170373   -0.133035    1.165058
C     -0.092112    0.887677   -0.518425
C      0.519010   -0.523301   -0.523132
N     -0.317321    0.982669    0.931205
O      2.965772   -1.341077   -1.408023
O      1.696975   -0.450486    0.225972
H      5.026366   -0.744504   -0.081475
H      4.213941   -1.648690    1.265495
H      4.122417    0.165347    1.203068
H     -2.358217    2.227573    0.144862
H     -3.479516    1.335485   -0.903052
H     -3.212226    0.462210    1.560087
H     -3.062273   -0.749884    0.238380
H     -1.601655   -0.071166   -1.748123
H     -1.374700    1.671379   -2.089596
H     -1.317695   -1.650622   -0.345704
H     -0.044857   -2.005636    0.952543
H     -1.163146   -0.425512    2.229860
H      0.611040    1.635595   -0.883476
H      0.610230   -0.934753   -1.515847
H     -0.658161    1.890393    1.225596
