32

C      4.826036   -0.357487   -0.264138
C      3.853205   -0.860498   -1.097305
C      4.436377    0.375288    0.839129
C      2.510772   -0.621361   -0.811554
C      3.080063    0.601555    1.104130
C     -4.081270   -0.243313    0.407431
C     -4.246790    1.032184    0.689143
C      2.103353    0.097343    0.268799
C     -2.805379   -0.799976   -0.083567
C     -3.105015    1.927515    0.503641
C      0.708841    0.349781    0.568271
C     -0.324480   -0.444592   -0.129805
C     -1.680071    0.030360    0.419856
O     -2.812650   -0.772536   -1.495191
O     -3.244091    3.161404    0.767692
O      0.545253    0.075017    1.954295
O     -0.391394   -0.332601   -1.490120
O     -1.914277    1.375824    0.042527
H      5.876915   -0.538752   -0.478687
H      4.120090   -1.441873   -1.975200
H      5.209180    0.756424    1.472660
H      1.786428   -1.029814   -1.479689
H      2.803260    1.180494    1.977682
H     -4.914080   -0.927938    0.538048
H     -5.212697    1.422962    1.054262
H     -2.689013   -1.877832    0.176448
H      0.439193    1.427271    0.479277
H     -0.265988   -1.515278    0.204713
H     -1.682246   -0.022453    1.525628
H     -3.151826    0.090569   -1.837674
H      0.785335   -0.871462    2.148740
H     -0.563033   -1.246224   -1.884923
