24

C      3.010345    0.455337    0.022243
C     -0.300181   -0.742523   -1.004123
C     -1.300351   -0.971596    0.124403
C     -0.453829   -0.429055    1.273638
C     -0.163477    0.959634    0.725484
C      0.107811    0.684420   -0.739891
N     -0.868404   -0.950736   -2.302949
O     -2.428589   -0.184298   -0.030800
O     -1.130115   -0.408292    2.471268
O     -1.349389    1.688808    0.903378
S      1.815625    0.967370   -1.208247
H      3.849238   -0.144008   -0.413938
H      2.604841   -0.142622    0.848166
H      3.503777    1.366928    0.443462
H      0.560933   -1.407088   -0.840667
H     -1.511561   -2.035307    0.294986
H      0.441303   -1.068886    1.310678
H      0.679593    1.451611    1.231875
H     -0.563835    1.372267   -1.310824
H     -0.203785   -1.478526   -2.928768
H     -1.140817   -0.060206   -2.775422
H     -3.074748   -0.452864    0.658827
H     -0.450794   -0.573628    3.186032
H     -1.633591    2.103261    0.061187
