48

C      6.555486   -1.023827    0.509116
C      6.397383    0.167755   -0.170443
C      5.477331   -1.724307    1.021641
C     -6.110550   -1.259704    0.133073
C      5.099669    0.663055   -0.333995
C      4.200920   -1.187233    0.831656
C     -5.342958   -0.640300   -0.816136
C     -5.637514   -1.327233    1.428804
C      1.777978   -0.412676   -0.838150
C      1.934520    0.777695    1.274241
C      0.556202    0.449904   -1.185893
C      0.506022    0.296736    1.225829
C     -3.382195    0.550495   -1.606307
C     -2.306586    0.437388    1.174662
C      4.010738   -0.006884    0.161764
C      2.673094    0.534103   -0.024376
C     -4.102016   -0.087568   -0.472923
C     -3.624937   -0.151720    0.817159
C     -4.422694   -0.784147    1.756600
C     -1.500039    0.389451   -0.103830
C     -2.234010    1.336263   -1.065187
I     -3.658560   -0.864152    3.728794
N     -0.142259    0.753217    0.041275
O     -1.320967    1.750236   -2.001683
H      7.588052   -1.372953    0.613026
H      7.231391    0.723979   -0.575358
H      5.665832   -2.636563    1.535538
H     -7.076541   -1.700470   -0.090139
H      5.010727    1.606221   -0.875347
H      3.384805   -1.771836    1.251447
H     -5.730076   -0.595546   -1.831239
H     -6.228873   -1.816030    2.209421
H      1.492655   -1.298523   -0.249212
H      2.283150   -0.754203   -1.747454
H      1.909401    1.867092    1.522515
H      2.496315    0.276459    2.084621
H     -0.034426   -0.182650   -1.882629
H      0.953374    1.339285   -1.685187
H     -0.011611    0.786402    2.092660
H      0.409092   -0.795645    1.413402
H     -3.050255   -0.234133   -2.330508
H     -4.032178    1.236271   -2.189447
H     -1.830302   -0.130296    1.999122
H     -2.473010    1.503922    1.428366
H      2.652765    1.495988   -0.585363
H     -1.583239   -0.644730   -0.500403
H     -2.657035    2.171684   -0.464150
H     -1.774076    2.289732   -2.704802
