60

C      6.281192   -1.096964    0.001137
C      2.123977   -0.533765    1.325641
C     -3.848321   -1.808642   -2.350110
C     -2.390573   -1.725497   -2.434619
C      3.488953   -0.690103    1.263042
C     -0.318412    1.853834    1.354343
C     -1.639083    2.162858    1.488766
C      2.273353    1.330128   -0.117507
C      4.712896    1.970032   -0.930544
C     -4.483945   -0.238391   -0.152900
C      5.676355    0.279373    0.230704
C      1.506685    0.471547    0.640128
C      3.638830    1.205136   -0.203979
C     -2.929800   -1.772850   -1.078622
C      4.231448    0.181222    0.498780
C      0.051106    0.687719    0.662341
C     -2.571787    1.316994    0.936233
C     -4.911545    0.884222    0.516236
C     -2.194392    0.156146    0.245538
C     -3.915583    1.660025    1.061488
C     -0.857253   -0.179853    0.099018
C     -6.318656    1.243680    0.649039
C     -0.038418   -2.533532   -0.120130
F      1.301470   -2.721565   -0.584871
F     -0.662569   -3.643597   -0.632256
N      5.754286    0.981496   -1.037943
N     -3.179449   -0.588192   -0.284233
O     -4.269532    2.703315    1.684796
O     -7.250902    0.580769    0.177852
O     -6.637491    2.400445    1.346440
O     -0.422537   -1.286271   -0.556574
C      1.049602   -0.108098   -0.084756
O     -1.498916    1.078953    0.004640
O     -1.041160   -1.172022    1.289904
O     -1.195967   -1.204865   -1.125729
S     -0.694905   -0.405135    0.057669
H      7.207414   -0.964856   -0.613745
H      6.581506   -1.559735    0.960892
H      5.521066   -1.691136   -0.541242
H      1.557568   -1.217466    1.928071
H     -4.406700   -2.723637   -2.542714
H     -4.400888   -0.887451   -2.592049
H     -1.871301   -2.627737   -2.816980
H     -1.909578   -0.790316   -2.789528
H      4.010527   -1.493154    1.806672
H      0.462857    2.509631    1.782911
H     -1.975290    3.042485    2.010339
H      1.801571    2.151022   -0.681385
H      5.017589    2.787888   -0.275758
H      4.351694    2.305599   -1.922370
H     -5.280824   -0.858510   -0.590573
H      6.236195    0.853038    0.990499
H     -3.081785   -2.699546   -0.477942
H     -0.076199   -2.662193    0.988896
H      5.544802    0.376198   -1.854136
H     -7.490527    2.900155    1.122184
H      1.333098   -0.161484   -1.159780
H      1.658936   -0.763001    0.532826
H      1.246199    0.947019    0.265736
H     -0.856886    1.788633    0.219490
