43

C     -5.457616    0.872408   -0.510439
C      6.205272    1.147362    0.087221
C      6.299588   -0.224090    0.012407
C      4.949014    1.709833    0.063784
C      5.183609   -1.025602   -0.083372
C     -2.418974    1.014962   -0.303590
C     -3.338409   -1.236099    0.332776
C     -4.609891    0.860602    0.691093
C      3.813772    0.900729   -0.033288
C      3.909469   -0.459123   -0.107372
C     -1.057235    0.406993   -0.278225
C     -2.199517   -1.774341   -0.454797
C     -0.960962   -0.933095   -0.351150
C      1.300184    0.650242   -0.159438
C      1.405235   -0.751045   -0.235493
C      2.480123    1.498885   -0.058105
C      2.746460   -1.338957   -0.209749
C      0.059584    1.254871   -0.179743
C      0.295967   -1.560061   -0.331403
C     -3.270148    0.216131    0.652493
O     -5.021872    1.384011    1.709867
O     -1.900165   -3.066280   -0.032034
O      2.400836    2.750836    0.010492
O      2.894340   -2.583522   -0.274873
O     -0.183316    2.607738   -0.112602
O      0.310950   -2.918310   -0.408982
O     -2.677197    0.345037    1.917650
H     -6.311479    1.561968   -0.394654
H     -4.896970    1.214186   -1.408584
H     -5.867274   -0.146929   -0.707637
H      7.102564    1.753452    0.162022
H      7.292671   -0.655363    0.031705
H      4.868278    2.784520    0.122107
H      5.233318   -2.098403   -0.142966
H     -2.815018    0.872554   -1.330512
H     -2.415546    2.051742    0.033492
H     -4.288729   -1.443615   -0.232643
H     -3.444107   -1.836975    1.280004
H     -2.469958   -1.824237   -1.532188
H     -2.013069   -3.157108    0.948384
H      0.380694    3.381998   -0.042929
H      1.053739   -3.523711   -0.410847
H     -2.568217    1.315806    2.065814
