60

C      6.403061    1.146841   -0.279585
C      2.504065   -0.076295    1.713232
C     -3.743233   -1.135135   -2.410397
C     -2.305464   -0.878225   -2.514165
C      3.845521   -0.226504    1.381645
C     -0.243696    1.327712    2.088557
C     -1.549889    1.577541    2.383131
C      1.966890    0.479812   -0.520625
C      4.014221    0.486595   -2.150939
C     -4.428684   -0.263168    0.183901
C      5.604831   -0.104448   -0.579250
C      1.563420    0.273871    0.777380
C      3.324335    0.327441   -0.854331
C     -2.823390   -1.421179   -1.203949
C      4.271504   -0.022125    0.073412
C      0.130336    0.472527    1.091769
C     -2.532795    0.949290    1.652233
C     -4.825371    0.588682    1.179756
C     -2.169884    0.056368    0.611794
C     -3.849936    1.200161    1.920166
C     -0.850695   -0.168136    0.351820
C     -6.215552    0.849469    1.458935
C     -0.103983   -2.390647   -0.263152
F      1.286359   -2.509453    0.010220
F     -0.353990   -3.303343   -1.227503
N      5.299605   -0.110903   -1.992658
N     -3.124370   -0.532838   -0.105749
O     -4.118041    2.007183    2.864893
O     -7.089485    0.274458    0.763632
O     -6.551438    1.721095    2.479288
O     -0.387758   -1.033362   -0.640199
C     -1.130703    0.071671    0.120833
O      1.539520    0.821935    0.426149
O      0.876868   -0.819324   -1.487037
O      0.884092   -1.627813    0.797847
S      0.549804   -0.456958   -0.063040
H      7.464486    1.041089   -0.497718
H      6.250350    1.348032    0.820704
H      5.918025    1.997825   -0.793907
H      2.191874   -0.238878    2.733047
H     -4.451894   -0.293290   -2.349842
H     -4.136713   -1.985693   -2.992337
H     -1.964850    0.197767   -2.480136
H     -1.610117   -1.496292   -3.109450
H      4.590371   -0.502151    2.114990
H      0.552062    1.823108    2.663129
H     -1.854601    2.263210    3.184053
H      1.232536    0.755632   -1.262926
H      4.055498    1.563963   -2.467153
H      3.404616   -0.097800   -2.900466
H     -5.165375   -0.765220   -0.424022
H      6.132374   -1.020318   -0.253949
H     -2.831747   -2.520284   -0.998552
H     -0.636355   -2.650334    0.670089
H      5.425724   -1.026445   -2.446341
H     -7.512758    2.042794    2.547526
H     -1.495637    0.436616   -0.862280
H     -1.797940   -0.745674    0.488954
H     -1.183280    0.888185    0.884855
H      1.757275    1.431361   -0.306281
