68

C      6.503003    0.442873    1.119072
C     -5.057911    1.208631    1.388005
C      7.633503    1.148792    0.850261
C     -6.236673    1.847152    1.058816
C      6.428525   -0.414903   -1.067073
C     -6.024584   -0.788206    0.521340
C     -2.130294    0.422009   -3.026202
C     -3.347624   -1.387312   -2.157237
C      2.480555   -2.028377   -0.332663
C      1.768761    0.994267    1.780684
C      5.853647   -0.365159    0.179785
C     -4.936971   -0.132258    1.119922
C     -2.916839   -0.673239   -3.239326
C      1.739212   -0.931120    0.349594
C      8.195592    1.088619   -0.400579
C     -7.302342    1.196336    0.470407
C      7.583266    0.301945   -1.353282
C     -7.194437   -0.151398    0.195232
C     -1.747772    0.843282   -1.766533
C      0.413983    1.186568    1.661858
C      3.908591   -1.576846   -0.686580
C      2.455715   -0.046834    1.142446
C     -3.009086   -1.032718   -0.846424
C     -2.213711    0.076159   -0.682221
C     -0.292469    0.306758    0.874807
C     -1.787934    0.468310    0.698847
C      0.381202   -0.741571    0.229002
C     -2.504409   -0.283283    1.740832
C      4.617328   -1.112085    0.545452
C     -3.771133   -0.961468    1.398396
O     -3.266496   -1.048234   -4.508775
O      9.352337    1.817161   -0.659028
O     -8.479533    1.895483    0.156155
O      8.181853    0.264919   -2.611964
O     -8.274450   -0.790049   -0.396242
O     -0.957027    1.953019   -1.571767
O     -0.252157    2.224058    2.301121
O      3.759386   -0.457560   -1.527838
O     -0.335033   -1.608227   -0.547646
O     -2.691460    0.421707    2.936171
O      3.804750   -0.218168    1.276561
O     -3.467417   -1.778923    0.240207
H      6.032267    0.469516    2.102458
H     -4.230390    1.731448    1.846579
H      8.060385    1.748238    1.652435
H     -6.291371    2.902850    1.286650
H      5.998756   -1.006387   -1.837772
H     -5.976525   -1.853284    0.288647
H     -1.759384    1.028523   -3.861101
H     -3.975040   -2.269613   -2.273297
H      2.044795   -2.278386   -1.341504
H      2.586887   -2.923036    0.283975
H      2.330697    1.666419    2.386542
H      4.382627   -2.408240   -1.200556
H     -1.951805    1.577774    0.794463
H     -1.802467   -1.134663    2.050224
H      4.924813   -1.991888    1.181789
H     -4.033054   -1.648803    2.230587
H     -4.088884   -0.731459   -5.000886
H      9.736571    1.746927   -1.593679
H     -8.524020    2.878893    0.370610
H      7.746062   -0.307866   -3.324508
H     -8.318476   -1.751637   -0.642379
H     -0.689428    2.279684   -0.672560
H      0.179483    2.898952    2.883907
H      3.850401    0.385938   -1.014788
H      0.099641   -2.373349   -1.019472
H     -3.195987   -0.216664    3.530131
