50

C     -2.019475    1.795115   -3.225602
C     -3.296484    1.980870   -2.743685
C     -1.047554    1.231117   -2.428000
C     -3.587342    1.593378   -1.449792
C      5.616198   -1.207352   -1.923124
C      5.529994    0.946356   -0.969138
C      0.456909    0.123361    2.332433
C      4.939551   -1.705135   -0.826565
C      4.850166    0.435616    0.128781
C     -0.901121   -0.481403    2.186415
C     -4.733373   -0.556200    1.510296
C     -3.819912    0.596116    1.484510
C      0.786209   -0.139903   -0.081717
C      5.919270    0.125354   -2.006766
C      1.412171   -0.261273    1.262877
C      4.538898   -0.904484    0.225050
C     -1.347961    0.844395   -1.128747
C     -0.623579    0.268099   -0.104456
C     -2.626916    1.025592   -0.632767
C     -1.490287    0.131922    0.945709
C     -5.379453   -0.835545    0.197646
F      6.588028    0.613897   -3.091438
N      1.987060   -1.561105    1.413901
N     -2.710774    0.591138    0.629947
O     -4.719487   -1.455635   -0.676176
O     -6.665830   -0.459043   -0.134437
O      4.162256   -0.882064    2.815280
O      4.111230   -3.025660    1.710721
S      3.684365   -1.567692    1.598492
H     -1.793236    2.106389   -4.258953
H     -4.071012    2.418695   -3.347332
H     -0.060955    1.084693   -2.792502
H     -4.573456    1.717792   -1.024151
H      5.926527   -1.849817   -2.745476
H      5.771525    1.996011   -1.041300
H      0.317936    1.242528    2.271059
H      0.825875   -0.056860    3.360408
H      4.731236   -2.760744   -0.819990
H      4.547142    1.082992    0.941972
H     -1.512339   -0.131255    3.064048
H     -0.926698   -1.569141    2.140516
H     -5.599086   -0.274072    2.156269
H     -4.346916   -1.473022    1.997741
H     -3.453356    0.760011    2.531165
H     -4.468777    1.508503    1.296240
H      1.365546    0.573870   -0.741107
H      0.884331   -1.116336   -0.648513
H      2.255458    0.495759    1.305016
H      1.707881   -2.152256    0.604712
H     -7.140381   -0.863570   -0.938390
