66

C      3.997484   -0.280051    0.935482
C     -5.353474   -0.213143   -1.104223
C      4.888348   -0.757041    1.884633
C     -6.691367    0.092232   -1.188124
C      5.317816   -1.236929   -0.772805
C     -5.062485    1.443144    0.527909
C     -0.032858   -3.198959    1.904753
C     -1.869878   -1.911534    2.643858
C      2.987158    2.439744   -0.716155
C     -0.680439    3.060662   -0.219665
C      4.209571   -0.518654   -0.409022
C     -4.512969    0.433085   -0.270649
C     -0.957198   -2.910825    2.877073
C      1.519132    2.238176   -0.571774
C      6.002966   -1.476077    1.534476
C     -7.259326    1.094807   -0.403992
C      0.683855    3.293162   -0.321790
C      6.221355   -1.718408    0.195752
C     -6.399316    1.762184    0.461244
C     -0.013379   -2.497118    0.700385
C      3.570555    1.475611   -1.750603
C     -1.845387   -1.208217    1.436776
C     -1.153457    1.766862   -0.373943
C     -0.918989   -1.492979    0.461367
C     -0.359498    0.678034   -0.623806
C     -0.915549   -0.693253   -0.779551
C      3.230204    0.048338   -1.407809
C      0.999603    0.944532   -0.719823
C     -2.415722   -0.580984   -1.149217
C     -3.053762    0.261984   -0.109123
O     -0.939122   -3.628904    4.055485
O      6.879421   -1.942042    2.527041
O     -8.611164    1.418446   -0.466670
O      1.164287    4.599834   -0.158349
O      7.332664   -2.428788   -0.171231
O     -6.982254    2.764828    1.242449
O      0.963337   -2.895636   -0.206349
O      4.954767    1.599236   -1.708354
O     -2.871773   -1.909329   -1.158527
O      1.890236   -0.068112   -0.966041
O     -2.796132   -0.197159    1.202664
O     -2.521926    1.589824   -0.259922
H      3.140113    0.271373    1.216751
H     -4.907886   -1.004960   -1.734617
H      4.745442   -0.586105    2.946230
H     -7.334607   -0.429142   -1.865933
H      5.478522   -1.425617   -1.816999
H     -4.469575    2.004416    1.227677
H      0.670405   -3.989951    2.114649
H     -2.612572   -1.630965    3.375289
H      3.128718    3.448019   -1.159194
H      3.531031    2.403337    0.221011
H     -1.327814    3.879934   -0.017620
H      3.201541    1.765359   -2.742335
H     -0.420655   -1.250677   -1.597865
H      3.335927   -0.555263   -2.327304
H     -2.474370   -0.141168   -2.148222
H     -1.581519   -3.465933    4.823552
H      7.724584   -2.484556    2.298108
H     -8.956666    2.153429    0.126732
H      2.135829    4.842389   -0.208623
H      7.567749   -2.645542   -1.137762
H     -6.386123    3.259046    1.871634
H      1.140907   -2.596252   -1.116320
H      5.411505    1.085707   -2.446490
H     -3.335821   -2.147461   -0.324337
