50

C     -3.325262   -4.040709   -0.753662
C     -4.404860   -3.166933   -0.913270
C     -2.164324   -3.529874   -0.229935
C     -4.278910   -1.835100   -0.546601
C      5.557006    1.402203    1.291941
C      5.513432    2.251496   -0.918656
C      0.774731    0.681456    0.593086
C      4.808392    0.300268    0.871764
C      4.761956    1.138895   -1.324986
C     -0.469958    0.821053    1.409226
C     -3.358913    1.788972   -0.910268
C     -3.556295    1.096582    0.413865
C      0.350905   -1.719401    1.076165
C      5.895602    2.359568    0.383539
C      1.337701   -0.721352    0.562629
C      4.406117    0.158839   -0.432705
C     -2.054499   -2.205757    0.129309
C     -1.044426   -1.423048    0.667103
C     -3.122908   -1.318889   -0.023267
C     -1.475697   -0.123653    0.834023
C     -4.182853    3.008640   -0.959096
F      6.629321    3.470646    0.721001
N      1.790830   -0.989415   -0.768766
N     -2.729740   -0.088519    0.410776
O     -4.900596    3.327105    0.007734
O     -4.139910    3.792455   -2.106166
O      3.922578   -2.459935   -0.132118
O      3.740730   -1.583653   -2.364461
S      3.476691   -1.228319   -0.908835
H     -3.485673   -5.059346   -1.056165
H     -5.323186   -3.530544   -1.317724
H     -1.323329   -4.184239   -0.099217
H     -5.113321   -1.138131   -0.664707
H      5.877637    1.524074    2.309782
H      5.754772    2.977067   -1.669510
H      1.568091    1.423656    0.899395
H      0.507377    1.002679   -0.455741
H      4.566834   -0.422378    1.614734
H      4.461691    1.061669   -2.366500
H     -0.328314    0.584475    2.476193
H     -0.865735    1.827488    1.269024
H     -3.595962    1.079082   -1.727664
H     -2.264054    2.062948   -0.953166
H     -3.375072    1.737101    1.274500
H     -4.614604    0.765624    0.464662
H      0.570552   -2.753831    0.818375
H      0.359209   -1.630118    2.198729
H      2.204969   -0.720955    1.273026
H      1.497322   -0.276586   -1.441031
H     -4.836045    4.506642   -2.287718
