49

C     -1.838896   -3.525509   -0.269632
C     -3.647951    2.469390   -0.377052
C     -0.669336    0.622458   -2.210184
C      5.336332   -0.580080    1.737849
C     -2.338109   -2.078226   -0.396632
C     -3.234866    1.960586    0.982895
C      3.048113   -1.320060   -1.715698
C      1.859685   -0.644983   -1.901118
C      3.799756   -1.078586   -0.583564
C      1.732801    1.468200    1.177072
C      0.286550    1.041002    1.465241
C     -1.305063   -1.186497    0.278385
C     -2.786972    0.550020    1.008597
C      0.194296    1.049876   -1.048389
C      1.434741    0.274435   -0.938136
C      2.217175    0.485952    0.179886
C     -0.565664    1.105868    0.242575
C      3.399945   -0.173066    0.384024
N     -1.657458    0.194966    0.225983
O      4.114719    0.106787    1.536581
H     -0.731374   -3.512609   -0.226125
H     -2.216190   -4.106249   -1.160937
H     -2.231700   -4.015551    0.622330
H     -2.891904    3.179433   -0.748115
H     -4.620899    3.025416   -0.332873
H     -3.845110    1.634728   -1.089061
H     -1.714740    0.954533   -1.944466
H     -0.387996    1.220964   -3.092385
H     -0.707237   -0.450701   -2.392252
H      6.112823   -0.305253    0.984517
H      5.770256   -0.287579    2.728523
H      5.200988   -1.680067    1.660460
H     -2.392487   -1.882019   -1.485098
H     -3.343431   -1.972570    0.022622
H     -4.170090    2.004291    1.620686
H     -2.541200    2.665337    1.499620
H      3.384142   -2.037042   -2.460767
H      1.248503   -0.810127   -2.776284
H      4.736037   -1.596965   -0.416970
H      2.299625    1.459348    2.113864
H      1.687678    2.497616    0.734594
H     -0.115125    1.684309    2.282624
H      0.368233    0.024543    1.901561
H     -1.288230   -1.527596    1.338430
H     -0.346479   -1.375288   -0.231790
H     -3.647370   -0.096463    0.740959
H     -2.554250    0.296251    2.076198
H      0.554992    2.101708   -1.313095
H     -0.997260    2.165069    0.266780
