47

C      1.474869    1.821620   -0.640968
C     -0.590721    0.244934   -2.004417
C     -5.171991    1.232311    2.353213
C      3.549897   -0.819688    1.470434
C     -2.967707   -1.595035   -1.138548
C      4.815041   -0.619616    1.985356
C     -4.311168   -1.645177   -1.409273
C      1.859666   -0.639604   -0.344707
C     -1.077381   -0.807720    0.211980
C      4.157841    0.186088   -0.573766
C     -3.413873   -0.158783    0.736916
C      0.962350    0.530213   -0.049679
C     -0.437001    0.333870   -0.520453
C      3.208057   -0.424719    0.200066
C     -2.535818   -0.853580   -0.070340
C      5.739961   -0.001621    1.173388
C     -5.200073   -0.949599   -0.602600
C      5.426946    0.401173   -0.093473
C     -4.757219   -0.213546    0.459958
O      7.016179    0.208718    1.671362
O     -6.571969   -0.986728   -0.860018
O      6.409520    1.029283   -0.884485
O     -5.646186    0.476377    1.258986
H      1.796396    1.623237   -1.668589
H      2.238055    2.312539   -0.013031
H      0.610768    2.518400   -0.690051
H     -1.675819    0.307624   -2.236213
H     -0.094967    1.105684   -2.471958
H     -0.236751   -0.714268   -2.427990
H     -6.013042    1.573389    2.991700
H     -4.576599    2.061415    1.972044
H     -4.523518    0.608892    3.009169
H      2.824513   -1.315604    2.135540
H     -2.268508   -2.131631   -1.758804
H      5.074318   -0.941011    3.003876
H     -4.719736   -2.217998   -2.245844
H      1.954085   -0.862285   -1.414679
H      1.405707   -1.532042    0.132661
H     -0.937358   -0.666124    1.301585
H     -0.604714   -1.783032   -0.053396
H      3.942609    0.523425   -1.596966
H     -3.015907    0.406570    1.561796
H      0.935868    0.666988    1.051120
H     -1.008093    1.258167   -0.203487
H      7.707492    0.660619    1.089666
H     -6.904943   -1.534911   -1.651837
H      6.150927    1.322787   -1.832202
