33

C     -2.841012    1.061126   -0.414378
C     -2.462229   -1.085619    0.496211
C     -4.212792    0.886531   -0.227085
C     -3.839111   -1.256583    0.682324
C      4.410503    0.283885    0.504895
C      2.466598    0.096632    1.845721
C     -1.957171    0.067747   -0.050220
C     -4.729228   -0.268188    0.320856
C      3.835801    0.231353    1.757839
C      3.637612    0.203928   -0.628625
C      1.634288    0.010879    0.730461
C      2.271878    0.069665   -0.503397
C      1.393620   -0.021083   -1.677096
C      0.013666   -0.519078   -1.442722
C     -0.523901    0.267468   -0.253033
O     -6.098478   -0.450956    0.511524
O      4.618979    0.312340    2.897809
O      4.209472    0.256177   -1.884462
O      1.840843    0.319360   -2.800267
O     -0.793759   -0.390123   -2.556063
O      0.257211   -0.124485    0.861862
H     -2.451354    1.984368   -0.850604
H     -1.766622   -1.872098    0.784867
H     -4.921651    1.658261   -0.508197
H     -4.233440   -2.169157    1.114252
H      5.482531    0.389469    0.465785
H      1.984583    0.052301    2.815198
H      0.102565   -1.577365   -1.100210
H     -0.259485    1.333033   -0.460934
H     -6.571224   -0.184284    1.357179
H      4.826963    1.214907    3.322853
H      5.212529    0.354905   -1.935845
H     -0.538186   -1.135318   -3.176497
