61

C      9.169117   -0.470071   -0.053965
C      7.639035   -0.526989   -0.048208
C      7.119758    0.837590   -0.395272
C      5.603723    0.795289   -0.415704
C      5.108134    0.394622    0.936447
C      3.581039    0.409266    0.938119
C      3.074747   -0.558523   -0.071005
C      1.542621   -0.551101   -0.080452
C      1.036895   -0.953163    1.250500
C     -0.423942   -1.094113    1.443885
C     -1.330722    0.046075    1.357883
C     -1.444887    0.850146    0.112394
C     -2.532970    1.899495    0.284053
C     -3.885393    1.389497    0.557087
C     -7.801129   -1.342059   -0.538297
C     -6.446811   -0.894318   -1.048552
C     -4.455490    0.482821   -0.498569
C     -5.843473    0.068509   -0.033707
N     -6.618989   -0.289399   -2.332343
O     -7.640946   -1.938020    0.723610
O     -4.629885    1.165113   -1.701655
O     -5.720247   -0.625135    1.179709
H      9.503128    0.185317   -0.867513
H      9.504232   -1.521886   -0.205878
H      9.499643   -0.077325    0.916522
H      7.345629   -0.758901    1.008583
H      7.300906   -1.322832   -0.710485
H      7.480148    1.146027   -1.402495
H      7.428342    1.553254    0.379303
H      5.344569   -0.002946   -1.164459
H      5.162813    1.756195   -0.727743
H      5.375620   -0.681156    1.150069
H      5.517410    1.011462    1.741521
H      3.293309    1.455016    0.636704
H      3.237797    0.223891    1.978615
H      3.441523   -0.281148   -1.089324
H      3.397909   -1.583856    0.194627
H      1.280380   -1.302988   -0.875196
H      1.281499    0.427556   -0.460743
H      1.365302   -0.122510    1.978282
H      1.597356   -1.851460    1.651450
H     -0.782717   -1.938602    0.736644
H     -0.546220   -1.623163    2.462685
H     -2.378469   -0.229762    1.739656
H     -1.010525    0.767282    2.200978
H     -1.502270    0.261586   -0.786560
H     -0.481029    1.457063    0.050834
H     -2.533748    2.544650   -0.618145
H     -2.224917    2.553994    1.125576
H     -4.604019    2.265836    0.598908
H     -4.019323    0.895980    1.536375
H     -8.188225   -2.086544   -1.255364
H     -8.484981   -0.493842   -0.463245
H     -5.756720   -1.738185   -1.146743
H     -3.881926   -0.457955   -0.624099
H     -6.514648    0.909520    0.129332
H     -6.916113    0.701576   -2.303583
H     -5.905815   -0.516253   -3.031431
H     -8.136911   -1.462398    1.425662
H     -4.611210    2.136467   -1.500885
H     -4.977911   -1.294493    1.131896
