61

C     -6.724302    0.107648   -2.936915
C     -6.193521    0.766077   -1.663945
C     -6.171954   -0.242507   -0.532502
C     -5.659811    0.352642    0.755115
C     -4.265939    0.856046    0.573215
C     -3.702997    1.462291    1.846631
C     -3.656667    0.478486    2.970831
C     -2.807222   -0.731194    2.685779
C     -1.366360   -0.342669    2.405351
C     -0.614059   -1.628549    2.136244
C      0.824723   -1.343821    1.850074
C      1.035561   -0.461060    0.655402
C      2.520127   -0.238791    0.454283
C      2.800608    0.638574   -0.728142
C      6.896197    0.713142   -2.408193
C      6.536624   -0.033322   -1.131198
C      4.266424    0.847482   -0.909858
C      5.059291   -0.384130   -1.135926
N      7.306156   -1.289016   -1.140442
O      8.269029    0.965880   -2.417490
O      4.742919    1.431705    0.287448
O      4.750675   -1.105167   -2.259130
H     -6.408968   -0.965993   -2.991543
H     -7.835161    0.103067   -2.947714
H     -6.349021    0.622579   -3.832941
H     -6.808123    1.639883   -1.441532
H     -5.142597    1.100823   -1.894201
H     -5.504027   -1.072539   -0.882140
H     -7.168477   -0.691329   -0.414749
H     -5.659275   -0.440668    1.518864
H     -6.351644    1.184367    1.037557
H     -3.616739    0.060463    0.193987
H     -4.293240    1.715234   -0.159743
H     -4.294068    2.333069    2.171721
H     -2.677319    1.822084    1.626825
H     -3.156017    1.009780    3.832162
H     -4.651387    0.198657    3.339852
H     -2.787681   -1.360949    3.595722
H     -3.172602   -1.295306    1.803809
H     -1.326926    0.305031    1.482615
H     -0.915137    0.191703    3.241672
H     -1.042589   -2.145656    1.246770
H     -0.665924   -2.278578    3.026380
H      1.394349   -2.268453    1.687011
H      1.228327   -0.792879    2.749315
H      0.563268    0.553967    0.778272
H      0.620243   -0.887015   -0.263585
H      3.045072   -1.197191    0.456283
H      2.872921    0.319996    1.367362
H      2.281776    0.304553   -1.649233
H      2.354710    1.644565   -0.492653
H      6.641343    0.053042   -3.260359
H      6.295414    1.619901   -2.466030
H      6.828150    0.523683   -0.223342
H      4.424321    1.612122   -1.694377
H      4.943003   -1.098014   -0.266083
H      8.152120   -1.174007   -0.547906
H      6.696335   -2.001929   -0.654280
H      8.512408    1.046481   -3.393538
H      5.056216    0.694127    0.887125
H      4.071446   -1.808419   -2.130325
