50

C      6.935796    1.182953   -0.805136
C      0.361732   -0.911699   -2.462831
C     -6.828557   -1.596115    0.974643
C     -2.832988    1.523907    3.359070
C      0.461870    2.400086   -0.138915
C      5.679689    1.593418   -0.865976
C      4.726377    1.035800   -1.864304
C     -2.861487   -1.910949   -0.249949
C     -4.170466   -1.799635    0.161902
C     -2.191007   -0.275813    1.320300
C      2.891239   -1.298456    0.534521
C      2.356156    0.810718   -1.174604
C      0.084460   -0.331306   -1.097605
C     -1.836641   -1.145726    0.324655
C      3.604892    0.415141   -1.062806
C      4.004282   -0.677934   -0.200371
C     -4.515941   -0.921319    1.164075
C     -3.519201   -0.157881    1.743303
C      1.674200   -0.891377    0.425699
C     -0.498247   -1.319426   -0.149118
C      1.268287    0.263526   -0.441271
O      5.180813   -1.089632   -0.063376
O     -5.842400   -0.793592    1.597023
O     -3.824533    0.724994    2.741288
O      0.792661    1.243641    0.519532
O      0.407815   -1.302202    0.980272
H      7.275134    0.432357   -1.489496
H      7.605157    1.606004   -0.069665
H      1.220887   -1.594440   -2.479858
H      0.509751   -0.104043   -3.179765
H     -0.532586   -1.506596   -2.748133
H     -7.831777   -1.346018    1.321901
H     -6.574054   -2.670885    1.144870
H     -6.804870   -1.472439   -0.144191
H     -1.927584    0.948521    3.638062
H     -2.523462    2.328429    2.651062
H     -3.265983    2.022436    4.265247
H      0.094885    3.125966    0.650206
H      1.371352    2.878016   -0.610401
H     -0.266081    2.327672   -0.952608
H      5.334312    2.351192   -0.176220
H      4.356197    1.871540   -2.469536
H      5.206769    0.287770   -2.508078
H     -2.660228   -2.617919   -1.039352
H     -4.969304   -2.393873   -0.283676
H     -1.410194    0.309891    1.767894
H      3.104639   -2.143141    1.210474
H      2.253147    1.627979   -1.921483
H     -0.659074    0.466508   -1.263216
H     -0.415833   -2.365997   -0.584059
