42

C      3.707527    1.562856   -0.543866
C     -1.803196   -2.808643   -1.165195
C      0.471435   -3.415290   -0.626086
C      0.291870    1.275736    2.616306
C      2.325403    1.595020    0.073179
C     -1.679378    2.025837   -2.227473
C     -1.061367    0.807482   -2.399956
C     -1.620967    1.706840    0.162769
C     -2.595718    3.722688   -0.690685
C     -1.946904    2.450407   -0.942643
C     -0.997268    0.478557   -0.018059
C     -0.723240    0.038445   -1.289984
C     -0.607879   -0.355905    1.142247
C     -0.702416   -1.783301    0.862360
C     -0.509572   -2.235769   -0.562273
N     -3.120814    4.737518   -0.508336
N      0.556563    0.177139    1.727292
O     -2.002280   -2.247023    1.214123
O      2.466482   -1.027146    0.259406
O      3.083859    0.238828    2.198937
O     -0.100562   -1.195795   -1.416519
S      2.053023    0.120109    1.072303
H      3.732127    2.329566   -1.330935
H      4.422399    1.817666    0.275485
H      3.877988    0.545407   -0.907721
H     -2.214419   -3.601190   -0.514446
H     -2.516745   -2.026723   -1.421258
H     -1.486065   -3.298331   -2.109072
H     -0.022619   -4.373724   -0.763207
H      1.039251   -3.370029    0.347855
H      1.208889   -3.169454   -1.415641
H      0.404927    2.214180    2.041196
H     -0.679227    1.128641    3.085465
H      1.087197    1.223126    3.418052
H      1.596649    1.681142   -0.737102
H      2.265232    2.509414    0.692598
H     -1.963814    2.664102   -3.060417
H     -0.836797    0.447509   -3.382005
H     -1.821455    2.019048    1.175971
H     -1.430304   -0.108024    1.912246
H     -0.063444   -2.420491    1.563855
H     -2.084371   -2.080425    2.191236
