48

C      5.023317    2.264248   -0.058129
C      5.543832    1.224393   -0.777386
C      3.932574    2.069949    0.759751
C     -4.987040    0.780220   -0.606306
C     -5.175692    1.043453    0.892943
C      4.980258   -0.030698   -0.690202
C      3.372739    0.799180    0.839396
C     -3.564234    0.337036   -0.885175
C     -4.131128    0.238044    1.618286
C      3.304361   -1.646095    0.186081
C      1.113179   -0.839579   -0.779894
C     -1.202859    0.977418   -0.333158
C     -1.644568    0.002531    1.764871
C      3.871112   -0.266625    0.130298
C     -2.654332    1.212595   -0.067191
C     -2.795410    0.907795    1.398207
C      2.254586   -1.785018   -0.890318
C      0.313385   -0.917762    0.448945
C      1.778468   -3.176925   -1.013110
N     -0.774051   -0.031979    0.609103
O      0.587517   -1.748534    1.333585
O      1.886145   -3.764939   -2.115636
O      1.206652   -3.904706    0.020818
H      5.467138    3.260281   -0.124604
H      6.400422    1.405480   -1.411351
H      3.535446    2.903558    1.320225
H     -5.741533    0.064706   -0.940645
H     -5.106101    1.776697   -1.123826
H     -6.201633    0.769110    1.212668
H     -5.010791    2.124106    1.125487
H      5.369757   -0.887639   -1.251297
H      2.517398    0.643083    1.481237
H     -3.373196    0.562597   -1.967525
H     -3.398593   -0.729358   -0.739872
H     -4.097131   -0.777760    1.175925
H     -4.368997    0.105914    2.694327
H      4.121542   -2.379074    0.000668
H      2.854683   -1.861055    1.160916
H      0.468422   -1.026568   -1.695765
H      1.471417    0.211210   -0.908689
H     -0.988659    0.668937   -1.375849
H     -0.671386    1.946424   -0.186734
H     -1.142879    0.471595    2.655510
H     -1.970683   -0.993689    2.073635
H     -2.903322    2.275485   -0.303763
H     -2.763841    1.879464    1.963202
H      2.745817   -1.531436   -1.891310
H      0.547894   -4.626070   -0.184917
