42

C      4.013978   -0.558861   -0.466816
C     -0.250923   -1.864296   -1.166447
C     -0.208803   -2.555006    1.151488
C     -1.905272    1.638177   -1.153627
C     -2.266532   -0.191913    1.526058
C      2.267768    1.239119   -1.035066
C      0.765783    1.296429   -1.217507
C     -2.014995   -1.120818    0.390739
C     -2.088605    1.234766    1.300333
C      1.752751   -0.690360    0.454665
C      2.608418   -0.028326   -0.306595
C      0.158463    1.093431    0.178213
C      0.333502   -0.264423    0.690407
C     -0.540968   -1.359378    0.231859
C     -1.193430    1.685058    0.188265
O     -1.035846    3.080000    0.437445
H      4.496539   -0.181726   -1.370327
H      4.558428   -0.169459    0.440989
H      4.022900   -1.660149   -0.362448
H      0.815035   -1.812025   -1.433557
H     -0.926394   -1.414627   -1.930584
H     -0.507630   -2.964928   -1.203459
H      0.526347   -3.221974    0.680876
H      0.187597   -2.218937    2.114513
H     -1.124680   -3.157994    1.346424
H     -2.994656    1.500752   -0.927137
H     -1.870012    2.622807   -1.700863
H     -1.499180    0.910156   -1.848175
H     -1.667658   -0.583346    2.400705
H     -3.334683   -0.370976    1.857875
H      2.806201    1.294990   -2.003177
H      2.562969    2.075089   -0.369500
H      0.429734    2.258284   -1.612532
H      0.495318    0.514453   -1.918713
H     -2.521842   -0.818565   -0.549415
H     -2.525357   -2.097372    0.658415
H     -1.701783    1.713283    2.248092
H     -3.080693    1.749495    1.136366
H      2.137948   -1.608442    0.931422
H      0.827199    1.743955    0.828565
H      0.254379   -0.237822    1.820474
H     -0.761316    3.501479   -0.438243
