88

C     -2.982756    1.402567    0.546835
C      5.214482   -2.482190   -0.672475
C     -8.855772   -1.432388    0.962624
C      7.903212    3.127301    1.680870
C     -5.091801   -3.921001    1.434467
C      4.664327    4.494415   -1.262883
C      0.157924   -0.124378   -3.146680
C     -0.381339    1.577380   -1.678431
C      0.565638   -2.184415   -0.744096
C     -0.229389   -1.401314    1.322701
C      1.531985    0.125802   -2.930805
C      1.002852    1.810443   -1.475921
C     -0.790129   -2.411717   -1.110031
C     -1.575000   -1.652115    0.897316
C     -5.535101    1.995546   -1.133347
C      5.165678   -1.090376    2.131748
C     -4.255652    2.701668   -0.859690
C      4.607774   -2.389775    1.661976
C     -2.280633    0.287893   -2.658614
C      2.151334   -1.042229    0.877908
C     -6.615826   -0.010257   -0.273797
C      6.051470    1.040197    1.308893
C     -0.842605    0.582468   -2.528602
C      0.806104   -1.651100    0.516435
C     -5.504570    0.523208   -0.836788
C      5.129801   -0.004999    1.117800
C     -1.884362   -2.145512   -0.310002
C      2.020210    1.127799   -2.061772
C     -3.340017    0.754642   -1.777984
C      3.345376   -1.199149    0.022706
C     -6.581915   -1.335875    0.078897
C      6.055448    2.105613    0.456984
C     -4.287695   -0.172819   -1.104482
C      4.228083    0.033693    0.075012
C     -5.393412   -2.042013   -0.170332
C      5.129219    2.134349   -0.606102
C     -4.254988   -1.461525   -0.752994
C      4.206251    1.083825   -0.791490
N     -3.114455    1.800535   -0.839563
N      4.173878   -2.316557    0.308962
O     -7.619589   -2.024256    0.657663
O      6.963332    3.184754    0.607673
O     -5.430800   -3.382366    0.206595
O      5.222933    3.244811   -1.397310
O     -3.190362   -2.391661   -0.853508
O      3.387075    1.311259   -1.881858
H     -1.930102    1.043747    0.684497
H     -3.048907    2.276526    1.242721
H     -3.681864    0.651286    0.896692
H      4.827572   -2.376531   -1.716491
H      5.655917   -3.516994   -0.641139
H      6.000953   -1.727032   -0.525583
H     -9.317258   -1.027483    0.005869
H     -9.524275   -2.194512    1.455587
H     -8.805898   -0.604955    1.711654
H      7.311951    2.834673    2.572931
H      8.387314    4.105687    1.842954
H      8.677617    2.398943    1.414092
H     -4.032930   -3.673183    1.663160
H     -5.096699   -5.048004    1.314182
H     -5.729431   -3.630615    2.291658
H      3.806605    4.568694   -0.606259
H      5.449251    5.242196   -0.937817
H      4.351681    4.860512   -2.285895
H      0.145300   -0.976784   -3.911737
H     -0.907226    2.365955   -1.077857
H      1.229562   -2.532347   -1.569469
H     -0.320326   -1.055940    2.433314
H      2.185398   -0.558398   -3.526952
H      1.088664    2.687232   -0.745437
H     -0.818063   -2.851253   -2.146679
H     -2.233607   -1.383579    1.783031
H     -6.395794    2.442522   -0.515930
H     -5.838363    2.120669   -2.173328
H      4.624162   -0.733743    3.069573
H      6.194589   -1.306196    2.487220
H     -4.323766    3.179488    0.146487
H     -4.098687    3.568139   -1.560627
H      3.763453   -2.716544    2.304410
H      5.353145   -3.243006    1.707909
H     -2.661630    0.561018   -3.729557
H     -2.433411   -0.833570   -2.759582
H      2.357495   -0.805565    1.919974
H      1.950853    0.143935    0.569255
H     -7.513927    0.580974   -0.089134
H      6.760556    0.984922    2.139012
H     -4.050840    1.313674   -2.551988
H      2.994749   -1.314736   -1.019296
