39

C     -2.189660   -3.149664   -0.548105
C      3.470061   -0.387726    1.402192
C      3.542106   -0.324394   -1.089898
C     -3.216417    0.082151   -0.534843
C      2.158190   -0.446653    1.351057
C      2.231289   -0.383659   -1.125073
C     -3.126746   -1.186648    0.281450
C     -1.946637    2.197388    0.067372
C      0.532899   -1.705841    0.108648
C      1.063437    4.202262    0.467635
C     -1.999874    0.862671   -0.199322
C      4.261233   -0.322336    0.193802
C     -0.808066   -1.288277   -0.435726
C     -0.708611    2.776459    0.372242
C     -0.828163    0.137323   -0.157498
C      0.392327    0.652458    0.132423
C      0.444751    2.009303    0.403330
C      1.402982   -0.450626    0.078085
N     -1.928255   -1.923683    0.184545
O      5.500100   -0.266634    0.240015
O     -0.343928    4.077414    0.680860
O      1.488488    2.862263    0.731067
H     -1.267345   -3.759526   -0.617470
H     -2.461022   -2.829641   -1.590020
H     -3.045205   -3.718881   -0.148202
H      4.022026   -0.385115    2.344164
H      4.116671   -0.276089   -2.001033
H     -4.099668    0.657695   -0.190470
H     -3.246296   -0.189270   -1.596386
H      1.596382   -0.494339    2.261161
H      1.736609   -0.383224   -2.084722
H     -3.987808   -1.815005   -0.034408
H     -3.252414   -0.908007    1.366214
H     -2.858298    2.753408    0.033075
H      0.492156   -2.169631    1.094742
H      0.975882   -2.428062   -0.608470
H      1.456526    4.841794    1.257912
H      1.294440    4.521123   -0.557651
H     -0.864143   -1.440782   -1.532697
