88

C     -3.355844    3.341382    2.040041
C      3.268941   -3.212853   -1.193036
C     -8.766014   -1.439581   -1.589588
C      9.108937    1.430663   -0.472798
C     -5.880747   -4.004664    0.971819
C      5.305488    3.966779   -0.084918
C     -0.430918    1.374860   -1.550215
C     -0.377648    2.096940    0.650890
C      0.244646   -1.905974   -0.556974
C      0.285697   -1.256309    1.699517
C      0.982302    1.293334   -1.543723
C      1.021490    2.011947    0.643493
C     -1.166213   -2.047468   -0.465089
C     -1.126436   -1.410275    1.746320
C     -5.743443    2.290494   -0.304010
C      6.150343   -2.362631    0.844204
C     -5.383553    2.796226    1.066593
C      5.370963   -3.229571   -0.122596
C     -2.665687    1.825531   -0.463391
C      2.386268   -1.086646    0.389649
C     -6.627282    0.056103   -0.686436
C      7.004590   -0.173693    0.095764
C     -1.161829    1.777178   -0.448558
C      0.982155   -1.495823    0.532462
C     -5.579108    0.815303   -0.243575
C      5.906237   -0.951277    0.372021
C     -1.885441   -1.801365    0.672516
C      1.770361    1.602973   -0.448420
C     -3.455733    1.314412    0.698352
C      3.658322   -1.693922    0.648117
C     -6.541092   -1.315703   -0.631553
C      6.711343    1.091572   -0.336709
C     -4.394677    0.250899    0.274041
C      4.608771   -0.503996    0.229310
C     -5.388662   -1.857173   -0.127165
C      5.416349    1.534891   -0.478505
C     -4.291265   -1.100686    0.335919
C      4.248198    0.736391   -0.194306
N     -4.113045    2.310590    1.457871
N      4.008235   -2.857289   -0.025162
O     -7.609046   -2.075817   -1.082644
O      7.802961    1.924790   -0.631906
O     -5.406680   -3.257162   -0.114609
O      5.341449    2.841949   -0.927361
O     -3.289640   -1.917235    0.778088
O      3.179645    1.494268   -0.446625
H     -3.999886    4.206537    2.387261
H     -2.895899    2.978293    2.984803
H     -2.612070    3.826185    1.378433
H      2.990445   -2.367186   -1.845044
H      2.400652   -3.832070   -0.883513
H      3.907746   -3.886760   -1.815930
H     -8.448289   -0.758020   -2.419209
H     -9.545498   -2.135487   -1.888616
H     -9.113154   -0.739713   -0.773560
H      9.284940    0.517838   -1.102520
H      9.276171    1.091467    0.585562
H      9.881783    2.166740   -0.700054
H     -5.372424   -4.991135    0.952410
H     -5.679383   -3.549722    1.950323
H     -6.976084   -4.226373    0.838859
H      6.057104    4.691975   -0.455876
H      4.317439    4.464394   -0.159197
H      5.579942    3.708967    0.951845
H     -0.735062    1.069943   -2.596675
H     -0.666847    2.470436    1.679972
H      0.567598   -2.249578   -1.596758
H      0.647344   -1.003460    2.748822
H      1.349227    0.947016   -2.547898
H      1.420038    2.326591    1.647979
H     -1.547189   -2.400494   -1.467950
H     -1.490106   -1.164492    2.781026
H     -6.821458    2.549039   -0.540963
H     -5.170461    2.666470   -1.138439
H      7.223619   -2.546419    0.793148
H      5.714840   -2.522981    1.845259
H     -6.197384    2.459523    1.762504
H     -5.348979    3.917160    1.041449
H      5.727844   -3.108840   -1.165664
H      5.480929   -4.297305    0.220497
H     -3.183545    1.340669   -1.302730
H     -2.998168    2.915069   -0.588599
H      2.634249   -0.702906   -0.698177
H      2.605605   -0.104570    1.023479
H     -7.541391    0.521341   -1.087172
H      8.022561   -0.511558    0.203890
H     -2.678695    0.894507    1.408023
H      3.808208   -1.853453    1.743454
