29

C     -2.979869    1.004428   -0.647958
C     -3.157481   -1.236839    0.032457
C      3.953993   -0.610619    0.063902
C      3.327598   -0.680579    1.288256
C      3.273831   -0.082588   -1.005816
C      2.035968   -0.223491    1.424422
C      1.985354    0.367659   -0.848763
C     -1.011271   -0.264345    0.018475
C      1.311736    0.320730    0.355515
C     -0.083760    0.792010    0.549983
N     -2.391266   -0.020342    0.126761
O     -0.224558    2.020658   -0.078949
Cl     0.687621    0.000000    0.000000
H     -2.485094    1.972955   -0.640069
H     -3.222018    0.633593   -1.688304
H     -4.005143    1.192326   -0.202766
H     -2.706710   -1.979170    0.731771
H     -4.214334   -1.032937    0.349106
H     -3.203798   -1.650632   -0.998113
H      4.985000   -0.977409   -0.040840
H      3.860727   -1.101590    2.155935
H      3.763469   -0.027175   -1.962565
H      1.547721   -0.281250    2.391658
H      1.475541    0.779391   -1.713005
H     -0.710827   -0.459555   -1.052750
H     -0.765718   -1.208885    0.544866
H     -0.235921    0.870336    1.650607
H     -0.123170    1.883317   -1.042259
H     -0.687621    0.000000    0.000000
