29

C     -2.900665   -0.899918   -0.812376
C     -3.209008    1.170882    0.384953
C      3.981045    0.593494    0.142415
C      3.331632    0.500738    1.352534
C      3.294431    0.215882   -0.988557
C      2.032180    0.044712    1.442554
C      1.989051   -0.241464   -0.892676
C     -0.999379    0.293332    0.087062
C      1.320249   -0.342410    0.308161
C     -0.085844   -0.835570    0.418870
N     -2.390616    0.000991    0.161727
O     -0.205251   -1.947616   -0.378423
Cl     0.688450    0.000000    0.000000
H     -4.004428   -0.674955   -0.920541
H     -2.866825   -1.973109   -0.503454
H     -2.489915   -0.764550   -1.832643
H     -4.057970    1.234116   -0.353732
H     -3.671472    1.124813    1.396711
H     -2.577198    2.083331    0.266832
H      5.002426    0.949791    0.051879
H      3.859304    0.796221    2.264567
H      3.731654    0.256388   -1.984102
H      1.527127   -0.025784    2.391698
H      1.442842   -0.543481   -1.797345
H     -0.784527    1.125778    0.787856
H     -0.740075    0.687541   -0.936108
H     -0.264640   -1.125839    1.481734
H     -0.264128   -1.703314   -1.328907
H     -0.688450    0.000000    0.000000
