27

C     -3.611360   -0.059997    0.617094
C     -2.103847    0.002405    0.753079
C     -1.495928   -0.006976   -0.617746
C      0.555963    1.268388    0.057562
C      2.063861    1.276138   -0.156371
C      1.810554   -1.038842    0.573395
C      0.009912    0.052605   -0.600163
C      2.614735   -0.115195   -0.282255
N      0.480003   -1.145719    0.068369
O      2.672662   -0.564776   -1.597696
H     -4.115209   -0.213057    1.580527
H     -3.951461    0.833220    0.064922
H     -3.868768   -0.941041   -0.036466
H     -1.806937   -0.889250    1.343645
H     -1.825787    0.884600    1.352201
H     -1.877388    0.858048   -1.198266
H     -1.853562   -0.917355   -1.139981
H      0.174598    2.185670   -0.421268
H      0.365478    1.312731    1.150693
H      2.589430    1.784535    0.658929
H      2.334538    1.814163   -1.102090
H      1.769839   -0.626376    1.605145
H      2.242128   -2.070249    0.615256
H      0.407533    0.010650   -1.634890
H      3.676402   -0.162789    0.098392
H      0.266970   -1.997485   -0.461090
H      2.475638   -1.534044   -1.665886
