44

C     -0.986980   -3.677994   -0.009890
C      1.363146    1.465089    0.027241
C      2.399114    2.225093    0.583711
C     -2.391173   -1.006231   -2.043721
C     -1.586317   -2.239816   -1.858315
C     -3.416619    0.769871   -0.715875
C     -1.573855    0.540925    1.277747
C     -3.831923    3.355693    1.797915
C      5.894424    1.417464    0.845030
C     -2.404601   -0.173046   -0.825739
C      1.598217    0.153189   -0.305574
C     -1.463890   -0.285983    0.197966
C      3.656487    1.708675    0.813584
C     -3.507132    1.592968    0.383023
C     -2.579335    1.483827    1.395729
C      2.862472   -0.352469   -0.072330
C     -0.389632   -1.337254    0.058764
C      0.726146   -0.883464   -0.867753
C      3.888306    0.400190    0.479346
C      2.836627   -1.725529   -0.555398
N     -1.054866   -2.414290   -0.599255
O      3.820635   -2.508394   -0.505515
O      4.840039    2.242905    1.346684
O     -4.405979    2.608103    0.742609
O     -2.902304    2.423309    2.371910
O      5.219228    0.151667    0.814881
O      1.587411   -2.024027   -1.065477
H     -0.090079   -4.261907   -0.358481
H     -0.896919   -3.574795    1.103596
H     -1.861949   -4.320699   -0.186769
H      0.431505    1.990258   -0.109790
H      2.227814    3.258787    0.850679
H     -3.453788   -1.330860   -2.258798
H     -2.062753   -0.410794   -2.933422
H     -2.132647   -3.165439   -2.177564
H     -0.739007   -2.177930   -2.615417
H     -4.156762    0.885423   -1.481787
H     -0.839120    0.450342    2.073634
H     -4.574657    3.694195    2.526169
H     -3.278104    4.198931    1.309713
H      6.207297    1.729972   -0.166432
H      6.749449    1.396521    1.536521
H     -0.063512   -1.643814    1.047932
H      0.335587   -0.628660   -1.871080
