42

C      4.457732    0.409652   -2.420571
C     -4.208627   -0.129167   -2.897201
C      3.224072   -0.152351   -2.198273
C      5.001062    1.204788   -1.433846
C     -5.048050    0.019226   -1.813544
C     -2.847700   -0.213333   -2.734670
C      2.520620    0.053445   -1.029178
C      4.286967    1.411251   -0.251895
C     -4.474036    0.079577   -0.568728
C     -2.287336   -0.149608   -1.460422
C      2.377596    1.124776    1.247762
C     -2.583713    0.073887    1.017837
C      0.351711   -0.750761    3.311919
C      3.058341    0.844725   -0.043994
C     -3.116454   -0.001531   -0.371506
C      0.855824   -0.834061    1.882782
C     -0.404945   -1.267489    1.159993
C     -0.985749   -2.212821    2.142244
C     -0.157683    0.991302    0.958760
N      1.102200    0.478887    1.351404
N     -1.145270   -0.045503    1.042324
O     -1.728196   -3.197297    1.931734
O     -0.443226    2.171072    0.580398
O     -0.550998   -1.808997    3.395909
H      5.027732    0.262753   -3.328513
H     -4.597206   -0.184295   -3.914972
H      2.806975   -0.775513   -2.981069
H      5.975496    1.653013   -1.600898
H     -6.115856    0.085212   -1.941765
H     -2.198992   -0.329771   -3.593666
H      1.551195   -0.385104   -0.848429
H      4.751655    2.047972    0.506180
H     -5.127991    0.197781    0.307435
H     -1.214302   -0.216775   -1.344913
H      2.277958    2.242467    1.361968
H      3.084028    0.820039    2.051688
H     -3.047233   -0.716003    1.633907
H     -2.923771    1.046767    1.476118
H      1.165940   -0.789571    4.043681
H     -0.171276    0.224571    3.425999
H      1.682321   -1.539811    1.758960
H     -0.180813   -1.743400    0.189052
