42

C      5.585655   -1.007390   -0.692812
C     -5.691894   -1.210949    0.342691
C      4.656751   -2.014770   -0.815212
C      5.332921    0.101300    0.084861
C     -5.482548    0.143452    0.187266
C     -4.752893   -2.086945   -0.118939
C      3.450381   -1.888708   -0.132952
C      4.129003    0.193065    0.745770
C     -4.315952    0.591773   -0.438319
C     -3.597722   -1.661499   -0.737768
C      1.907841   -0.608314    1.396341
C     -2.148982    0.188244   -1.558202
C      1.567317    2.137126   -0.410868
C      3.172602   -0.791768    0.650458
C     -3.381162   -0.299857   -0.897210
C      0.623736    1.509199    0.537505
C     -0.770551    1.620558    0.092873
C     -1.021315    2.807003   -0.691642
C     -0.085407   -0.541733   -0.209162
N      0.887990    0.067446    0.628931
N     -1.064702    0.397131   -0.617717
O     -2.065247    3.428756   -0.789803
O     -0.131715   -1.762349   -0.582790
S      0.547908    3.193428   -1.513235
H      6.540419   -1.105565   -1.231841
H     -6.597931   -1.553011    0.828345
H      4.869383   -2.888195   -1.434682
H      6.092019    0.883565    0.160860
H     -6.173007    0.901155    0.522860
H     -4.871967   -3.164951   -0.020113
H      2.713679   -2.678136   -0.224444
H      3.973514    1.081844    1.345433
H     -4.147033    1.650224   -0.562737
H     -2.870237   -2.387726   -1.093801
H      1.512459   -1.606586    1.685928
H      2.108347   -0.079221    2.369522
H     -1.876230   -0.523155   -2.357534
H     -2.319306    1.172225   -2.077067
H      2.232642    2.841358    0.130485
H      2.171889    1.423876   -1.002779
H      0.727602    1.889868    1.574792
H     -1.438257    1.638233    1.000965
