31

C      3.424397    0.389927   -0.789993
C      3.152649    0.199556    0.645478
C     -0.779277   -1.953396   -0.412892
C     -2.117448   -1.383753   -0.585576
C      1.743984    0.216068    1.126655
C     -0.126332    0.203480   -1.333418
C      0.399072   -0.987796   -0.580651
C     -2.250518    0.049022   -0.107249
C     -1.194982    0.835686   -0.530409
C     -3.135291    1.883112    0.924150
N     -3.934453    2.654917    1.628073
N      0.923628   -0.783404    0.678557
N     -3.201307    0.553746    0.603011
S     -1.587628    2.376735    0.122655
H      4.444998   -0.065562   -1.032111
H      2.740380   -0.038554   -1.495640
H      3.629684    1.492532   -1.019395
H      3.688313   -0.741643    0.956921
H      3.749738    1.014323    1.188857
H     -0.726923   -2.466827    0.579550
H     -0.687627   -2.783661   -1.158002
H     -2.847747   -2.051212   -0.087929
H     -2.470273   -1.349966   -1.655569
H      1.833888    0.094587    2.268429
H      1.327395    1.262813    1.068912
H      0.592801    0.956697   -1.615178
H     -0.598447   -0.190218   -2.257314
H      1.108133   -1.513812   -1.249435
H     -3.682616    3.663692    1.745523
H      0.656740   -1.517031    1.398118
H     -4.074933   -0.020057    0.975874
