41

C     -0.869464    1.254281   -1.460037
C     -2.050320   -1.957273   -0.929146
C     -2.908563   -1.012559   -0.177834
C     -0.989902   -2.675540   -0.123125
C     -3.068032    0.355384   -0.653031
C     -0.451000   -1.799300    0.991973
C      2.312989    1.798033    0.646948
C      0.407446    1.161350    1.999623
C      3.677185    0.363524   -0.640094
C     -2.036847    1.397292   -0.492780
C      1.496327    0.768533    1.079505
C      3.382210    1.618074   -0.192711
C      1.024548   -1.693550    0.997919
C      2.874809   -0.708279   -0.226641
C     -0.547378    2.144908    1.417526
C      1.782698   -0.503139    0.634646
O      4.196300    2.655840   -0.621664
O      1.715106   -2.712483    1.345937
O      3.224513   -1.951890   -0.715069
O     -0.164724    3.367665    1.588228
O     -1.669212    1.742847    0.795337
H     -1.275791    1.283952   -2.486993
H     -0.278794    2.205107   -1.347597
H     -0.198856    0.435950   -1.242412
H     -2.618138   -2.792930   -1.444770
H     -1.604644   -1.406848   -1.810741
H     -2.804903   -1.056156    0.948247
H     -3.960662   -1.462488   -0.266587
H     -0.142329   -2.883511   -0.814819
H     -1.311830   -3.630493    0.286455
H     -4.020452    0.771210   -0.199015
H     -3.323473    0.318516   -1.754784
H     -0.756970   -2.224482    1.952334
H     -0.834517   -0.813852    0.765966
H      2.123622    2.816009    0.972006
H     -0.073896    0.337588    2.551830
H      0.984467    1.657227    2.873912
H      4.518217    0.157386   -1.311677
H     -2.566036    2.318863   -0.920647
H      4.016018    3.180231   -1.450123
H      2.790281   -2.824996   -0.566095
