35

C     -3.951801   -2.081609    0.171993
C     -2.735035   -2.555042   -0.210727
C     -4.101192   -0.769942    0.518467
C     -1.609492   -1.697361   -0.255173
C     -3.208757    1.408883    0.839125
C     -2.150128    2.255543    0.804934
C      0.140827    2.734534    0.412700
C      1.386944    2.325233    0.042237
C     -3.024487    0.090619    0.485614
C     -0.898521    1.825172    0.425313
C     -1.770100   -0.397512    0.091262
C      1.583680    1.017567   -0.310699
C     -0.670852    0.480125    0.055915
C      0.567674    0.055192   -0.316545
C      3.008517    0.675996   -0.683298
C      3.223587   -0.610268    0.134363
C      0.931488   -1.296708   -0.726106
C      2.411539   -1.627210   -0.564514
O      3.872571    1.664523   -0.308982
O      4.534086   -1.011382    0.147220
O      1.440966   -2.240678    0.140723
H     -4.834795   -2.718595    0.215447
H     -2.603210   -3.590278   -0.487278
H     -5.071609   -0.356234    0.832242
H     -0.728964   -2.144508   -0.562251
H     -4.201422    1.713968    1.131805
H     -2.258445    3.322873    1.081893
H     -0.064385    3.778614    0.705130
H      2.181454    3.062217    0.042390
H      3.105533    0.417715   -1.744685
H      2.906701   -0.400484    1.178681
H      0.705909   -1.585932   -1.821446
H      2.922231   -2.202058   -1.379665
H      4.071201    1.715575    0.640233
H      4.888287   -1.258547   -0.726318
