38

C     -4.518723    0.189823   -0.280329
C     -3.120055    2.171564   -0.927362
C      4.370142    2.262858    1.104868
C      0.801948   -0.506763    1.470039
C      0.798739   -1.988006   -0.352919
C      2.072620   -0.094550    1.150104
C      2.063296   -1.594509   -0.692094
C     -2.223080   -1.257965    0.148225
C     -3.167380    0.675401   -0.776485
C      0.137598   -1.457136    0.732120
C      2.733957   -0.620649    0.070567
C     -1.234606   -1.873407    1.116314
N     -2.177821    0.189544    0.185568
N      4.042860   -0.234754   -0.289719
O     -1.311912   -3.252964    1.046682
O      5.925628    1.434422   -0.910544
O      3.584847    2.020184   -1.466369
S      4.502877    1.396736   -0.412652
H     -4.854374   -0.710842   -0.817042
H     -5.265154    1.023784   -0.379476
H     -4.484254   -0.073019    0.808177
H     -3.925573    2.621763   -0.331778
H     -3.289782    2.490015   -1.991435
H     -2.123640    2.525225   -0.617116
H      5.110160    3.133388    1.074653
H      4.610622    1.666992    1.997047
H      3.399785    2.743853    1.241887
H      0.323106   -0.048734    2.346152
H      0.268244   -2.748930   -0.944936
H      2.519332    0.657468    1.799097
H      2.599464   -2.000723   -1.541387
H     -1.949455   -1.558863   -0.880665
H     -3.230506   -1.648858    0.424201
H     -2.924777    0.188024   -1.745037
H     -1.415788   -1.528512    2.153989
H     -2.475045    0.536072    1.116958
H      4.717290   -1.040962   -0.477548
H     -0.890590   -3.686967    1.818096
