51

C      4.606703   -0.142753   -0.937395
C     -2.503957   -2.240870    1.714814
C     -3.335659    2.102915   -0.588649
C      4.820641    0.756462    0.240341
C      3.698901    1.634325    0.601570
C      0.789809   -0.444020   -1.939018
C      1.499249   -1.529548   -1.147369
C     -4.939516   -1.232992   -0.908331
C     -4.246523   -1.968844   -0.001508
C     -4.617712    0.082551   -1.075295
C     -0.349529    0.049525   -1.076826
C      2.421475    1.141377    1.101903
C      1.741336   -1.073224    0.271581
C     -3.229840   -1.390181    0.740366
C     -3.604749    0.673531   -0.341030
C      0.240649    0.779861    0.100974
C     -2.876769   -0.063478    0.598611
C     -0.706249    0.850230    1.245386
N     -1.885017    0.500592    1.340820
N      1.547649    0.290695    0.474230
O     -0.147063    1.420795    2.424167
Cl     0.684307    0.000000    0.000000
H      4.587421   -1.209950   -0.647115
H      3.723645    0.204688   -1.501359
H      5.500381    0.009374   -1.637275
H     -1.797206   -2.874738    1.105007
H     -3.227578   -2.872486    2.263017
H     -1.921213   -1.578214    2.375984
H     -2.298456    2.401608   -0.370073
H     -3.515960    2.297657   -1.665685
H     -4.083897    2.739352   -0.042297
H      5.132689    0.105177    1.114342
H      5.770475    1.354928    0.034074
H      3.563553    2.373709   -0.261280
H      4.110486    2.336617    1.424348
H      1.467970    0.410716   -2.094559
H      0.441673   -0.869007   -2.903225
H      0.812082   -2.395552   -1.111429
H      2.416738   -1.861218   -1.662774
H     -5.745350   -1.697812   -1.494352
H     -4.523962   -3.020934    0.113201
H     -5.189202    0.657035   -1.811650
H     -1.030167    0.720788   -1.638895
H     -0.840035   -0.862425   -0.686157
H      2.648522    0.683472    2.144676
H      1.797081    2.060065    1.484077
H      2.687848   -1.447821    0.627348
H      0.974805   -1.605615    0.946325
H      0.390044    1.838940   -0.229565
H     -0.776213    1.904695    3.074833
H     -0.684307    0.000000    0.000000
