49

C     -2.891924    2.971812   -0.047373
C      0.913218    2.382769    0.680391
C      4.254310   -1.227482   -0.069189
C     -3.865738    1.858715   -0.151439
C     -3.327669    0.479831    0.128483
C     -0.974609   -3.418907    0.697119
C     -2.295747   -3.403652    0.039185
C      4.638227    2.398320    0.676582
C      3.311545    2.767931    0.752128
C      4.930432    1.091188    0.407737
C      0.115117   -2.669014    0.049294
C     -2.230978    0.079815   -0.811943
C     -2.553715   -2.309311   -0.934782
C      2.287430    1.854073    0.563655
C      3.912340    0.185908    0.220716
C     -0.365092   -1.521867   -0.845050
C      2.563267    0.534910    0.292239
C      0.621881   -0.416384   -0.791884
N      1.559929   -0.414355    0.101659
N     -1.703634   -1.199101   -0.639850
O      0.529698    0.613232   -1.707030
H     -3.178546    3.582369    0.844171
H     -1.864777    2.625972    0.025036
H     -2.949597    3.601925   -0.978869
H      0.166612    1.614795    0.893232
H      0.694327    2.956351   -0.241321
H      0.914035    3.160758    1.500012
H      5.322474   -1.424110    0.149188
H      3.653472   -1.847565    0.616333
H      4.106969   -1.445360   -1.132064
H     -4.777328    2.069112    0.458690
H     -4.227468    1.811432   -1.226580
H     -2.913717    0.537737    1.180183
H     -4.164890   -0.207377    0.180626
H     -1.086613   -3.105136    1.774959
H     -0.649616   -4.501101    0.778184
H     -3.124099   -3.368249    0.807792
H     -2.511432   -4.373406   -0.501559
H      5.428793    3.128771    0.828147
H      3.099380    3.806970    0.965645
H      5.978759    0.785205    0.346799
H      0.745443   -2.192059    0.830195
H      0.799339   -3.344613   -0.505389
H     -2.626416    0.184328   -1.844589
H     -1.437734    0.837714   -0.699657
H     -2.269884   -2.671808   -1.945488
H     -3.629222   -2.069713   -0.975858
H     -0.272045   -1.938367   -1.895170
H      1.345495    1.146992   -1.942676
