51

C      4.726087    0.734560   -1.219278
C     -3.545414    1.566104    1.847674
C     -2.423287   -0.983517   -2.281943
C      3.867582   -0.500022   -1.366505
C      2.415277   -0.195689   -1.583103
C      1.676005   -2.365112    1.343447
C      2.752884   -1.581540    2.078077
C     -5.241033    1.334039   -1.447365
C     -4.940527    1.678750   -0.154184
C     -4.390311    0.464906   -2.095579
C      0.319489   -1.719944    1.545837
C      1.744221    0.565126   -0.494594
C      2.709585   -0.106087    1.667100
C     -3.813544    1.154427    0.451396
C     -3.264566   -0.054212   -1.479829
C      0.414092   -0.209031    1.399180
C     -2.951864    0.284751   -0.180403
C     -0.771355    0.387943    0.791574
N     -1.806034   -0.261402    0.403039
N      1.654422    0.067451    0.776401
O     -0.796032    1.764558    0.613872
Cl     0.686542    0.000000    0.000000
H      5.373763    0.687575   -0.316836
H      4.121086    1.658469   -1.090199
H      5.395216    0.877205   -2.094989
H     -3.125547    2.582886    1.936562
H     -2.901582    0.790505    2.308034
H     -4.487244    1.563387    2.432689
H     -2.454134   -0.637548   -3.324984
H     -2.883553   -1.991403   -2.209949
H     -1.388420   -0.975572   -1.856497
H      4.056120   -1.122946   -0.453082
H      4.296133   -1.051202   -2.257634
H      2.390821    0.475437   -2.498312
H      1.840723   -1.085968   -1.923027
H      1.978801   -2.384379    0.268171
H      1.622697   -3.384876    1.752567
H      2.676469   -1.720993    3.156831
H      3.765933   -1.935091    1.784741
H     -6.122208    1.753815   -1.897918
H     -5.587316    2.365571    0.399982
H     -4.652957    0.208826   -3.120080
H     -0.013020   -2.025369    2.564430
H     -0.403206   -2.162804    0.842448
H      0.680653    0.743204   -0.879364
H      2.168531    1.619899   -0.580641
H      2.447497    0.425586    2.642542
H      3.703076    0.288637    1.417174
H      0.495960    0.168544    2.463326
H     -1.329971    2.242547   -0.080797
H     -0.686542    0.000000    0.000000
