46

C     -3.333648    1.408098    1.349932
C      3.299204    1.666304   -0.738796
C     -4.648334    1.392521    1.762336
C      4.605571    1.790922   -1.127059
C     -1.614925    0.640540   -0.258915
C      1.567235    0.368299    0.511384
C     -3.959234   -0.046671   -0.403708
C      3.904110   -0.330665    0.379950
C     -1.166205   -1.815144    0.131460
C     -7.556578   -0.040604    0.084940
C      7.459697   -0.229061   -0.163006
C     -2.987045    0.672989    0.245451
C      2.935975    0.577986    0.034785
C     -0.733551   -0.409039    0.321369
C      0.631451   -0.324789   -0.385114
C     -5.615641    0.665464    1.101832
C      5.567452    0.875687   -0.776783
C     -5.280064   -0.076595   -0.008492
C      5.215294   -0.202926   -0.011654
C      0.870269   -1.778276   -0.657804
O      1.426084   -2.493642    0.370136
O     -0.433338   -2.278220   -0.960452
O     -6.990247    0.471614    1.293940
O      6.940666    0.758608   -1.028497
O     -6.433589   -0.716448   -0.490111
O      6.331916   -1.000840    0.227845
H     -2.592998    2.003019    1.907171
H      2.519926    2.374485   -1.001523
H     -4.955939    1.974961    2.648289
H      4.891376    2.645145   -1.734429
H     -1.586870    0.558021   -1.364481
H     -1.148458    1.631028   -0.010896
H      1.600911   -0.190527    1.487998
H      1.107992    1.358622    0.778835
H     -3.717121   -0.646241   -1.296837
H      3.686642   -1.213995    1.001880
H     -0.824170   -2.412010    1.031448
H     -2.231475   -1.991017   -0.006095
H     -7.831043    0.830670   -0.556193
H     -8.383490   -0.733857    0.266441
H      8.184026   -0.898282   -0.675911
H      7.919539    0.231479    0.732899
H     -0.611328   -0.184932    1.405594
H      0.507110    0.229760   -1.339713
H      1.458178   -1.914859   -1.579620
H      2.004666   -3.197581   -0.012190
