44

C     -1.666311    3.493546    1.652909
C     -2.345919   -3.142686   -0.575908
C     -2.419178   -3.369890    0.790914
C     -1.896734   -1.890737   -0.938995
C     -2.064711   -2.403488    1.704130
C      2.288659    1.950424   -1.010788
C      3.181006   -1.499658    0.023280
C      0.828832    1.712099   -1.240980
C      4.426997   -1.242960    0.544418
C      1.049851   -0.599327   -1.107485
C      2.451868   -0.512344   -0.488499
C     -1.537304   -0.910386   -0.048996
C     -1.621510   -1.167712    1.294214
C      2.939602    0.768543   -0.499194
C     -1.060703    0.420649   -0.528819
C     -1.723842    1.485849    0.244785
Cl    -1.183485    0.020453    2.510352
N      0.353901    0.519714   -0.574609
O     -2.971830    1.506048    0.308202
O     -1.006704    2.460967    0.901575
S      4.528206    0.567890    0.261393
O      1.558554    0.013373   -0.385419
O     -0.933714   -1.056253    0.234763
O     -0.610184    1.125073   -1.170693
O     -0.113069    1.172279    1.209503
S     -0.035023    0.327394   -0.021053
H     -0.957463    3.993867    2.333192
H     -2.233485    4.180138    1.009168
H     -2.412717    2.944587    2.287079
H     -2.624562   -3.902397   -1.302020
H     -2.773757   -4.357702    1.087125
H     -1.842786   -1.721164   -2.027167
H     -2.144497   -2.644717    2.778397
H      2.748428    2.257365   -1.971994
H      2.398057    2.855760   -0.343415
H      2.842506   -2.584220    0.065936
H      0.205815    2.606716   -1.067808
H      0.682543    1.491571   -2.343197
H      5.171325   -1.829268    0.990529
H      1.237743   -0.427620   -2.189383
H      0.593134   -1.567381   -0.939581
H     -1.440978    0.537471   -1.588762
H      2.004794   -0.602145    0.230461
H     -1.871357   -0.979721   -0.097562
