44

C      1.352041    3.738429    0.429242
C      3.846677   -1.869076   -0.743371
C      3.842402   -2.733985    0.324351
C      2.814068   -0.968359   -0.866498
C      2.832170   -2.696835    1.243984
C     -2.383423   -1.711153    0.580397
C     -3.670086    1.652242   -0.581071
C     -1.133933   -1.429652   -0.190857
C     -4.974089    1.249650   -0.819904
C     -1.356074    0.946702    0.203233
C     -2.821218    0.692217   -0.116407
C      1.773651   -0.922055    0.069862
C      1.801768   -1.791908    1.116442
C     -3.303149   -0.534590    0.067817
C      0.696102    0.038648   -0.241433
C      1.204628    1.393026   -0.230624
Cl     0.551324   -1.694128    2.342507
N     -0.582631   -0.201820    0.352020
O      2.194337    1.683063   -0.986697
O      0.746084    2.466201    0.524873
S     -4.933902   -0.490366   -0.368428
O     -1.085994    0.917737   -0.294724
O      1.417474   -0.259268   -0.262884
O     -0.667082   -1.551861   -0.982471
O     -0.527861   -0.925788    1.393673
S     -0.216423   -0.487348   -0.008701
H      1.567755    3.975618   -0.650377
H      2.364234    3.735112    0.914967
H      0.715293    4.549875    0.807549
H      4.655888   -1.885398   -1.494490
H      4.652710   -3.442277    0.421216
H      2.853200   -0.311887   -1.736655
H      2.808317   -3.383735    2.111354
H     -2.322105   -1.590515    1.665137
H     -2.893192   -2.645825    0.268695
H     -3.367625    2.714409   -0.769368
H     -1.459863   -1.141660   -1.241936
H     -0.442290   -2.241676   -0.334999
H     -5.877184    1.828344   -1.204739
H     -1.289901    1.572978    1.126171
H     -0.948588    1.622879   -0.624701
H      0.486604   -0.172493   -1.367260
H     -0.680280    1.710963    0.099991
H      1.760166    0.595565    0.055116
