28

C     -4.403968   -0.723476   -1.142569
C      4.553189   -0.907327   -1.092182
C     -4.095027    0.362002   -0.144263
C      3.993581    0.037944   -0.058720
C     -0.259364    0.173309   -0.098684
C      0.439732   -0.033806    1.226472
C     -1.711809   -0.214842    0.003338
C      1.853634    0.371813    1.042656
O     -0.163794    1.519290   -0.447316
O     -0.203094    0.770418    2.168210
O     -2.014906   -1.397651    0.310057
O      2.290876    1.333501    1.712139
O     -2.723888    0.678476   -0.227054
O      2.646849   -0.302394    0.156300
H     -5.093328   -1.490188   -0.735369
H     -3.455323   -1.144429   -1.505214
H     -4.860850   -0.204037   -2.033878
H      5.574000   -1.209205   -0.726326
H      4.626933   -0.398724   -2.070717
H      3.919993   -1.796217   -1.195740
H     -4.687520    1.284540   -0.349709
H     -4.333435    0.025949    0.891857
H      4.042592    1.099726   -0.428360
H      4.559141    0.007671    0.877736
H      0.164815   -0.425456   -0.913171
H      0.345525   -1.117056    1.481621
H     -0.982644    2.000054   -0.126819
H     -0.021908    1.700116    1.922037
