44

C     -3.772495   -2.008461   -0.940360
C      5.012816    0.495045   -1.043041
C     -2.855746   -1.096602   -1.338000
C      3.759125    0.999752   -0.755178
C     -4.688831   -1.678048    0.025800
C      5.480442   -0.642874   -0.448561
C     -1.770030    1.140747   -1.253097
C      1.644691    0.908123    0.452161
C     -3.726790    0.489960    0.163265
C      3.430310   -0.819824    0.762917
C     -0.888589    1.759437    1.000703
C      0.472582   -1.041679   -0.428673
C     -2.795149    0.169576   -0.810445
C      2.969856    0.310745    0.170087
C     -0.559630    1.308374   -0.426831
C      0.585993    0.406047   -0.551706
C     -4.662728   -0.418778    0.578917
C      4.681077   -1.291674    0.452311
O     -1.566346    3.007140    0.950441
O      0.082126   -1.544385    0.788264
O     -5.600184   -0.112425    1.552010
O      5.105317   -2.450047    1.084777
H     -3.772153   -3.005089   -1.397063
H      5.650017    1.001868   -1.753504
H     -2.136984   -1.357659   -2.133401
H      3.411490    1.891816   -1.231207
H     -5.409631   -2.419496    0.327505
H      6.471991   -1.068985   -0.656324
H     -2.344700    2.113648   -1.380866
H     -1.482006    0.889269   -2.308596
H      1.725822    1.989404    0.482784
H      1.302139    0.506999    1.454025
H     -3.745317    1.473116    0.616023
H      2.804932   -1.341085    1.477818
H     -1.579559    1.065821    1.509799
H      0.015399    1.991330    1.591586
H      1.537480   -1.462395   -0.562823
H     -0.068348   -1.567021   -1.225928
H     -0.119809    2.323459   -0.841913
H      1.078946    0.608764   -1.558853
H     -2.253248    3.067662    1.652951
H     -0.765014   -2.038720    0.779900
H     -5.580329    0.820104    1.961146
H      4.921066   -3.372955    0.669911
