23

C     -0.824321    0.106248    1.474456
C     -1.605106    0.990394   -0.565965
C      0.736132   -1.658147   -0.410535
C      1.478479   -0.429842   -0.955095
C     -0.705200   -1.159952   -0.521415
C      0.698086    0.684739   -0.295153
C      1.467990    1.198903    0.832583
N     -0.592296    0.161636    0.053098
O      1.258346    2.326989    1.342151
O      2.476164    0.421021    1.375031
H     -1.357709    1.034959    1.789237
H     -1.527645   -0.731161    1.660578
H      0.074193   -0.085025    2.064659
H     -1.790432    1.900418    0.056209
H     -1.299519    1.316936   -1.599333
H     -2.550765    0.439820   -0.621897
H      0.986198   -1.763869    0.660833
H      0.922144   -2.548165   -1.009063
H      1.321641   -0.424350   -2.036997
H      2.538805   -0.435352   -0.647387
H     -0.904887   -1.060594   -1.608209
H     -1.410321   -1.803830    0.008130
H      0.610024    1.518225   -1.045916
