37

C     -4.128034    1.503900   -0.816237
C     -3.637920    0.095015   -0.450110
C      4.451519    1.098276   -0.233809
C      3.719803    0.397784   -1.168871
C     -2.129862    0.152029   -0.498758
C     -1.699790   -1.491720    1.204462
C     -0.459973   -2.069555    1.827508
C      2.661871    0.853296    1.272571
C      0.294908   -0.671262   -1.798661
C      3.926855    1.340653    1.019381
C      1.930946    0.153472    0.338735
C     -0.087844   -1.109112   -0.424982
C      2.443558   -0.093027   -0.912193
C      0.571410   -0.347181    0.685807
N     -1.512253   -1.106783   -0.176921
O      4.649051    2.049372    1.989518
O      0.615674   -1.191160    1.798448
O      1.724461   -0.799802   -1.880727
H     -3.382499    1.985220   -1.511898
H     -5.121953    1.477494   -1.278024
H     -4.166474    2.154635    0.088766
H     -4.035648   -0.099948    0.558292
H     -4.038208   -0.573829   -1.226338
H      5.435832    1.474886   -0.435396
H      4.136730    0.202232   -2.169538
H     -1.799667    0.995757    0.125500
H     -1.876885    0.388122   -1.555053
H     -2.046575   -0.668389    1.842355
H     -2.485569   -2.274327    1.219262
H     -0.699004   -2.221887    2.915506
H     -0.202961   -3.080983    1.443257
H      2.270580    1.061660    2.274837
H      0.069795    0.362518   -2.051202
H     -0.152354   -1.379861   -2.518401
H      0.226478   -2.194596   -0.347426
H     -0.015194    0.551849    1.006666
H      4.549199    3.075251    2.034717
