38

C      3.924332   -1.184714   -0.970514
C      3.312212    0.790434    0.212517
C      2.588704   -1.550370   -1.103056
C      1.976042    0.403971    0.067928
C      5.733621    0.333749   -0.197071
C     -3.156920   -1.087136    2.424961
C      4.289644   -0.025192   -0.319254
C      1.598781   -0.732962   -0.569506
C     -2.483448   -0.451970    1.247064
C     -3.483321    0.213712    0.344384
C     -2.805793    0.819637   -0.855037
C     -1.811764   -0.165030   -1.444098
C     -0.858486   -0.507965   -0.292343
O      5.861426    1.532721    0.491279
O     -3.984417   -0.131248    3.011936
O     -4.053944    1.268723    1.071875
O     -3.710034    1.272699   -1.785349
O     -1.126331    0.424660   -2.496099
O      0.299725   -1.113740   -0.713012
O     -1.629762   -1.310654    0.578353
H      4.724920   -1.796024   -1.373127
H      3.546471    1.709678    0.732134
H      2.330368   -2.461105   -1.616283
H      1.244296    1.047880    0.485376
H      6.190894    0.483559   -1.200233
H      6.297634   -0.429038    0.387049
H     -3.671238   -2.024970    2.192416
H     -2.346126   -1.331766    3.169654
H     -1.833006    0.375492    1.657161
H     -4.306035   -0.457257    0.029435
H     -2.194203    1.681568   -0.476711
H     -2.369161   -1.059570   -1.778183
H     -0.677758    0.424669    0.238109
H      5.445028    2.262764   -0.029359
H     -3.567061    0.321739    3.779040
H     -5.039547    1.291928    0.986885
H     -3.213083    1.372955   -2.657463
H     -1.042660   -0.211828   -3.230858
