23

C     -1.372184   -0.424845    1.117667
C     -1.325341    1.288787   -0.466754
C      0.812395   -1.582414   -0.597710
C      1.443172   -0.821215    0.525299
C     -0.354801   -0.752908   -1.030969
C      0.700112    0.518014    0.587957
C      1.461362    1.501755   -0.163587
N     -0.571196    0.177435    0.041505
O      2.320088    1.150527   -0.999039
O      1.249003    2.849965    0.032372
H     -0.737384   -1.067092    1.726936
H     -2.234476   -0.937750    0.683405
H     -1.766489    0.430307    1.715722
H     -1.302965    2.165329    0.208910
H     -1.050311    1.547864   -1.518269
H     -2.400460    0.948864   -0.518539
H      1.542973   -1.725036   -1.431379
H      0.448657   -2.570763   -0.252106
H      2.503607   -0.616303    0.363177
H      1.348383   -1.356228    1.493774
H     -1.267516   -1.354155   -1.206026
H     -0.115139   -0.195341   -1.965197
H      0.668511    0.825204    1.652851
