17

C     -2.475334   -0.144809   -0.091861
C     -1.849708   -1.365956   -0.053116
C     -1.753439    1.017033   -0.038096
C     -0.462919   -1.417403    0.042123
C     -0.371250    0.930465    0.056699
C      2.597715    0.839763   -0.156480
C      0.299169   -0.266693    0.098610
C      1.766712   -0.330705    0.199375
O      2.298254    0.557767    1.157989
H     -3.546064   -0.062003   -0.165246
H     -2.460859   -2.266317   -0.098343
H     -2.238523    1.973042   -0.068094
H      0.005903   -2.371850    0.071028
H      0.180210    1.874732    0.097981
H      3.652319    0.663390   -0.440621
H      2.121110    1.687592   -0.684026
H      2.236703   -1.318048    0.072078
