75

C      8.445630    0.407367   -3.298121
C      8.103808    2.378438   -1.867733
C      2.468130   -2.514767    2.091260
C      2.155491   -1.079703    3.913360
C      4.499318   -1.579794    3.207246
C      1.121671   -2.647926    1.900353
C      0.799577   -1.205473    3.734774
C      5.008337   -0.277027    2.672196
C     -2.963934   -0.653730   -0.156650
C     -4.034860   -0.282458   -1.249902
C     -6.780626   -0.368702   -3.284449
C     -7.391948    1.885033   -2.536923
C     -8.105171   -0.215718   -4.013813
C     -8.858391    1.575792   -2.860994
C     -2.124618    0.528361    1.824855
C     -2.262632   -1.711862    3.016589
C      4.839464    1.334232   -0.768446
C      5.360785    0.704359   -3.136829
C      3.030006   -1.747188    3.073181
C     -2.552588   -0.252031    3.006354
C      0.232593   -1.970827    2.748740
C      5.522478    0.349188   -1.682809
C      4.729177   -0.081821    1.259030
C     -6.387033    0.349528   -0.879567
C      7.408363    1.205589   -2.524707
N     -2.887261    0.487600    0.657222
N     -5.244818   -0.002301   -0.561608
N     -6.821916    0.589258   -2.197385
O     -3.839273    0.077876    3.477044
O      4.164888   -0.925253    0.541773
O     -7.303059    0.512342    0.201549
O     -9.049488    0.213902   -3.096888
O     -1.081359   -2.142822    2.507697
O      5.088220    1.107791    0.585916
O      6.368784    1.621785   -3.329882
O      6.911584    0.384181   -1.531772
H      7.998193   -0.594837   -3.516383
H      9.301189    0.255927   -2.624130
H      8.678275    0.968936   -4.217700
H      8.227488    2.158247   -0.792150
H      7.454393    3.289816   -1.927529
H      9.076771    2.579194   -2.374420
H      3.106317   -3.103061    1.408062
H      2.599143   -0.469340    4.698018
H      4.942498   -2.458105    2.664552
H      4.747240   -1.721604    4.283686
H      0.733557   -3.266042    1.108013
H      0.143127   -0.669781    4.427123
H      6.123043   -0.214155    2.899828
H      4.584580    0.532440    3.319922
H     -2.034255   -0.834989   -0.705567
H     -3.404707   -1.532078    0.306537
H     -3.654570    0.527380   -1.887207
H     -4.166374   -1.194803   -1.876331
H     -5.965324   -0.070946   -3.970654
H     -6.717418   -1.415078   -2.922101
H     -7.288383    2.553659   -1.685439
H     -6.941522    2.290702   -3.466257
H     -8.054747    0.498784   -4.836556
H     -8.370775   -1.202069   -4.454094
H     -9.439689    1.818338   -1.946768
H     -9.152709    2.169345   -3.731824
H     -2.109488    1.620922    2.159433
H     -1.029751    0.322521    1.664413
H     -2.344631   -2.134030    4.067776
H     -3.100361   -2.240413    2.467325
H      5.291118    2.334995   -1.010422
H      3.773744    1.434074   -1.026914
H      5.469876   -0.224940   -3.727904
H      4.343219    1.149179   -3.292364
H     -1.907920    0.166277    3.876004
H      5.174365   -0.673198   -1.512211
H     -3.693577    1.125269    0.593998
H     -3.960266   -0.145461    4.412106
H     -7.000995    0.315705    1.143619
