35

C     -5.638496    0.033631    0.445363
C     -0.984928   -0.957828   -0.396721
C     -0.918320    1.216608    0.495283
C     -2.298290   -0.795091   -0.738470
C     -2.259586    1.397032    0.151974
C      1.895095    1.512907   -1.127728
C     -0.264551    0.033910    0.223917
C     -2.955885    0.370059   -0.475325
C      2.099882    0.134809   -0.535341
C      1.139477   -0.102536    0.603033
C      5.506489   -0.863879    0.687502
C      4.136039   -0.960879    0.166179
Cl     5.950471    0.822003    0.953022
Cl     6.684388   -1.575991   -0.448497
F      2.092160    2.517410   -0.217960
N      3.454341    0.091720   -0.028304
O      1.349659   -1.344659    1.204722
O      3.608398   -2.216770   -0.106297
O     -4.968345   -0.261551   -2.137644
O     -4.923623    2.012938   -1.277303
S     -4.641918    0.571142   -0.917093
H     -5.072076   -0.787051    0.961148
H     -5.758150    0.872419    1.145022
H     -6.598104   -0.352850    0.047880
H     -0.498540   -1.881709   -0.616246
H     -0.445213    2.050754    0.976153
H     -2.827289   -1.594205   -1.222617
H     -2.785598    2.308691    0.354321
H      2.617042    1.600900   -1.971540
H      0.863698    1.537573   -1.564697
H      1.994681   -0.586650   -1.353067
H      1.378542    0.649230    1.382716
H      5.644137   -1.400122    1.650457
H      0.515422   -1.718670    1.603676
H      2.908993   -2.333295   -0.832730
