31

C      2.961343    0.929978   -0.532731
C      1.710246   -1.048122   -0.275169
C      4.116799    0.215285   -0.758320
C      2.859483   -1.803488   -0.499331
C     -4.308096   -0.265306    0.874355
C     -3.208141   -0.107872    1.690130
C     -2.949034    0.180220   -1.066916
C      0.252947    1.305886    1.431648
C      1.744597    0.330613   -0.288641
C      4.051881   -1.155814   -0.738827
C     -4.155077   -0.117689   -0.488732
C     -1.974166    0.196661    1.103376
C     -0.784315    0.375636    1.928199
C      0.509307    1.137506   -0.047668
C     -1.835251    0.341264   -0.260945
O      5.229933   -1.882153   -0.968835
O     -5.277592   -0.281361   -1.284787
O     -0.712313   -0.266364    3.003543
O     -0.590181    0.640294   -0.766783
H      3.017563    2.000763   -0.549055
H      0.781740   -1.539409   -0.088742
H      5.073950    0.710898   -0.950451
H      2.819263   -2.876340   -0.486182
H     -5.261174   -0.497376    1.291032
H     -3.251410   -0.209292    2.765215
H     -2.797285    0.301868   -2.128165
H     -0.134598    2.334384    1.582981
H      1.217977    1.212864    1.968714
H      0.709949    2.159840   -0.490203
H      5.447427   -2.130322   -1.943855
H     -5.265768   -0.193053   -2.293210
