37

C      5.244775   -0.705605    0.237924
C      5.129609    0.629397    0.511116
C      4.066746   -1.433817    0.065995
C      3.891307    1.233348    0.612806
C      2.835055   -0.816479    0.170569
C     -3.163150   -1.447235    0.637200
C     -3.120129   -1.366592   -0.891464
C     -1.676675    0.317448    1.623167
C      2.721055    0.518064    0.443688
C     -1.779271   -1.106323    1.115903
C     -1.795825   -0.612707   -1.081924
C     -1.035483    1.125212    0.499433
C     -1.905168    0.825243   -0.698374
C     -1.726509    1.765926   -1.803798
C      1.430791    1.201055    0.560703
N     -0.969359   -1.298958   -0.097399
O     -0.817336    2.610667   -1.792642
O     -2.603311    1.693353   -2.875559
O      1.386802    2.416361    0.810571
O      0.250238    0.550220    0.404619
H      6.203848   -1.191208    0.155477
H      6.036074    1.215004    0.648638
H      4.158249   -2.499887   -0.152184
H      3.837795    2.285323    0.828757
H      1.938352   -1.402118    0.033242
H     -3.892110   -0.681816    1.034031
H     -3.475029   -2.455225    0.981113
H     -2.999631   -2.370105   -1.331446
H     -3.968378   -0.795859   -1.275963
H     -2.711616    0.687145    1.745689
H     -1.085878    0.388626    2.556621
H     -1.416181   -1.802381    1.895143
H     -1.422904   -0.765513   -2.114648
H     -1.024151    2.194567    0.720271
H     -2.967820    0.983260   -0.340823
H     -0.869669   -2.299842   -0.281353
H     -2.705110    2.411453   -3.555100
