37

C      5.684576    0.783868   -0.205524
C      4.688243    1.485075    0.436932
C      5.359695   -0.368003   -0.917071
C      3.386478    1.039138    0.367585
C      4.036929   -0.786213   -0.964240
C     -2.920767   -1.979819    0.286146
C     -3.247493   -1.131167   -0.913386
C     -1.307728   -0.546142    1.573441
C      3.029099   -0.097065   -0.327812
C     -2.722322   -1.027901    1.410454
C     -3.041747    0.283474   -0.376752
C     -0.714420   -0.254464    0.223396
C     -1.618566    0.721871   -0.493734
C     -1.493703    2.101763   -0.017495
C      1.630938   -0.514241   -0.361070
N     -3.506026    0.141938    0.979098
O     -1.060242    2.977753   -0.831629
O     -1.812358    2.515163    1.247554
O      1.290102   -1.558170   -0.997888
O      0.614425    0.153813    0.262890
H      6.729222    1.075278   -0.194194
H      4.967895    2.372733    0.980137
H      6.136265   -0.924458   -1.424427
H      2.637433    1.618111    0.885137
H      3.767729   -1.679042   -1.512708
H     -3.824394   -2.609484    0.538422
H     -2.099158   -2.683820    0.119492
H     -4.326560   -1.213494   -1.159319
H     -2.613210   -1.344284   -1.783248
H     -0.701775   -1.287970    2.143754
H     -1.365251    0.406988    2.139708
H     -3.090045   -1.406372    2.383419
H     -3.694914    0.996631   -0.907188
H     -0.742307   -1.193961   -0.398710
H     -1.348687    0.634561   -1.577073
H     -4.492988   -0.147745    0.958208
H     -2.214369    3.445657    1.367043
