34

C     -3.694121   -1.210294    0.235571
C      3.910890    0.278859   -0.420400
C     -3.694963    0.072763   -0.313642
C      3.389023    1.543187   -0.491955
C     -2.503212   -1.774172    0.625028
C      3.054507   -0.786767   -0.307165
C     -2.532447    0.797431   -0.479210
C      2.012859    1.724872   -0.449092
C     -1.333126   -1.062345    0.465927
C      1.689444   -0.613779   -0.264134
C     -1.338022    0.226850   -0.086486
C      1.142089    0.663138   -0.335540
C     -0.114858   -1.806194    0.938021
C      0.930522   -1.899836   -0.139748
C     -0.515490    2.437687   -0.523064
N     -0.582715    2.990132   -1.663072
N     -0.217903    1.068624   -0.309472
O     -0.471804   -3.017928    1.468902
O      1.809073   -2.920956    0.205441
O     -0.743540    3.192889    0.632802
H     -4.617991   -1.755212    0.353855
H      5.002225    0.146832   -0.455247
H     -4.640076    0.506983   -0.617008
H      4.037476    2.408370   -0.581979
H     -2.430938   -2.762162    1.056867
H      3.483088   -1.775509   -0.252053
H     -2.509917    1.797153   -0.904247
H      1.566583    2.715023   -0.503598
H      0.342713   -1.200324    1.769375
H      0.444859   -2.143069   -1.127673
H     -0.808171    4.003833   -1.719243
H     -0.741404   -2.872126    2.425756
H      1.843946   -3.090552    1.175236
H     -1.168599    4.116597    0.591246
