17

C     -2.434823    0.087562    0.202645
C     -1.834063    0.974589   -0.662616
C     -1.711280   -0.918291    0.816767
C     -0.467694    0.884910   -0.948016
C     -0.366355   -0.983657    0.517554
C      2.581648    0.170377    0.557720
C      0.260284   -0.112950   -0.341435
C      1.710625   -0.235843   -0.622241
O      2.521181    0.868807   -0.629875
H     -3.494572    0.165867    0.417011
H     -2.365713    1.769082   -1.158103
H     -2.211845   -1.600399    1.492209
H      0.006707    1.588240   -1.633595
H      0.224892   -1.759028    0.982188
H      3.416434   -0.488990    0.800533
H      2.105730    0.706757    1.410304
H      2.058843   -1.117033   -1.201049
