78

C      5.510658   -1.695052   -0.196572
C      5.696645    0.629031   -0.869886
C     -4.496147   -1.165860   -1.848862
C     -4.291367    1.994933    1.875085
C      2.965020    2.132161   -0.145391
C     -0.406720   -1.647187    0.884882
C      0.554619    0.909708   -1.731186
C      3.114952   -0.652365   -1.424796
C      4.658179    1.087791    2.190985
C      3.163167    1.035882    2.006158
C      1.704348   -1.192651   -1.336729
C     -4.050021   -1.538919    0.505445
C     -4.063329   -0.402851    1.495575
C     -2.395514   -2.223247   -1.236601
C     -1.001230   -1.743978   -1.461636
C     -1.002531    1.300820    0.541768
C     -3.796789    1.224440   -0.383885
C     -1.476229    0.275145   -0.190018
C     -2.788863    0.192524   -0.793735
C      0.344808    1.304469    1.118537
C      3.529571   -0.326256   -0.010835
C      5.373374   -0.006168    1.505474
C      1.319136    0.368803    0.588546
C     -6.018312    0.872582    0.666742
C      4.998422   -0.272072    0.094421
C     -3.376151   -1.203421   -0.778708
C     -4.551148    0.887889    0.872616
C      2.753772    0.835805    0.546171
C     -0.519504   -0.849701   -0.380805
C      0.813289   -0.163711   -0.719789
O      0.519780    2.143407    2.039866
O      6.220642   -0.622410    2.127034
O     -6.673085   -0.153986    0.930136
O     -6.664606    1.988494    0.184925
H      5.738205   -1.765796   -1.298565
H      6.431409   -1.911968    0.362719
H      4.728212   -2.434375    0.026512
H      5.868153    1.658063   -0.492347
H      5.224231    0.583190   -1.849514
H      6.739453    0.214516   -1.013636
H     -5.482741   -1.094292   -1.392807
H     -4.490773   -2.123712   -2.436036
H     -4.335383   -0.364071   -2.568004
H     -4.192413    2.950740    1.342188
H     -5.149873    2.061981    2.586458
H     -3.383841    1.755353    2.477865
H      2.101857    2.806589    0.131181
H      3.850899    2.692848    0.277941
H      3.115793    2.096741   -1.219754
H     -0.539508   -1.051408    1.811008
H      0.537573   -2.269366    0.901121
H     -1.204885   -2.425472    0.927215
H      1.413389    0.953234   -2.460894
H     -0.299124    0.587216   -2.376281
H      0.444580    1.919347   -1.344262
H      3.247945    0.174629   -2.119281
H      3.766166   -1.477753   -1.799560
H      4.854567    1.109033    3.264098
H      5.072937    2.047145    1.777597
H      2.810409    2.044050    2.378098
H      2.718905    0.295013    2.673103
H      1.759734   -2.129988   -0.733689
H      1.297816   -1.468657   -2.313584
H     -5.105722   -1.893795    0.318997
H     -3.562483   -2.405904    0.990346
H     -4.780570   -0.668306    2.298042
H     -3.079734   -0.243932    1.961574
H     -2.705110   -2.710497   -2.210827
H     -2.463148   -3.089056   -0.516583
H     -0.936954   -1.340562   -2.484172
H     -0.340998   -2.653518   -1.462017
H     -1.687231    2.114504    0.667775
H     -4.578416    1.244409   -1.205777
H     -3.358271    2.222455   -0.418960
H     -2.631519    0.376375   -1.906583
H      3.192403   -1.219880    0.600414
H      1.350562   -0.488881    1.327058
H     -7.625337    1.999711   -0.143105
