23

C     -2.227661   -0.995675   -0.747657
C     -1.801212    1.150932    0.301300
C     -0.064105   -0.664805    0.304298
C      1.780803    0.793110   -0.557079
C     -1.142792    0.030691   -0.456313
C      1.093553    0.200026    0.678301
N      2.002960   -0.574869    1.458770
O      2.288501   -0.210522   -1.371574
H     -2.792377   -1.191872    0.180626
H     -1.759822   -1.892775   -1.186479
H     -2.933378   -0.520724   -1.466510
H     -2.194213    0.770631    1.277986
H     -2.697177    1.455775   -0.283352
H     -1.141122    2.015729    0.463476
H      0.316242   -1.490262   -0.326598
H     -0.466427   -1.106429    1.237391
H      1.043410    1.353801   -1.157123
H      2.586273    1.478371   -0.232687
H     -0.775118    0.430833   -1.405803
H      0.759166    1.064152    1.292516
H      2.720988   -0.060019    1.963283
H      2.226635   -1.502883    1.114239
H      3.176873   -0.533218   -1.081013
