34

C     -4.933906   -0.995021    0.943738
C     -4.400164   -0.342695   -1.410494
C      5.043672    0.659893   -0.922800
C      4.177740   -1.536507   -0.299081
C     -4.083393   -0.133399    0.053541
C      3.990989   -0.041211   -0.132220
C     -0.484527    0.485030    0.986994
C      0.437570    1.369322    0.182702
C     -1.901864    0.752037    0.750244
C      1.838323    0.938933    0.533027
O     -0.162494   -0.822148    0.721462
O      0.250987    1.079698   -1.175062
O     -2.460745    1.861770    0.914352
O      2.295932    1.075626    1.694609
O     -2.705389   -0.290490    0.310002
O      2.685348    0.372637   -0.410819
H     -5.322046   -0.443656    1.827170
H     -5.842563   -1.361880    0.394524
H     -4.355699   -1.865641    1.360440
H     -4.680456   -1.420857   -1.554052
H     -5.285276    0.254063   -1.728147
H     -3.561868   -0.047722   -2.063302
H      4.926793    1.757188   -0.859334
H      5.123631    0.291389   -1.971796
H      6.034188    0.426677   -0.457665
H      3.546416   -2.014489    0.491243
H      5.226369   -1.763683   -0.024320
H      3.915427   -1.864993   -1.305458
H     -4.333526    0.935756    0.273736
H      4.183959    0.174456    0.954196
H     -0.271404    0.684053    2.058495
H      0.363296    2.428587    0.418639
H     -0.141473   -0.951951   -0.252701
H      0.886149    0.349228   -1.445025
