27

C     -2.748587   -0.411415   -1.441359
C     -3.149325    0.738955    0.632895
C      3.200968   -0.357371    0.855716
C     -0.444595   -0.407251    1.120818
C      0.057560   -0.306304   -1.264625
C      0.855983   -0.470019    1.407539
C      1.515968   -0.335320   -0.953882
C     -2.217484    0.179046   -0.379894
C     -0.775583    0.299585   -0.169141
C      1.830662    0.142297    0.461025
O      1.760029    1.532154    0.477716
H     -3.817007   -0.495049   -1.587379
H     -2.111014   -0.844653   -2.224609
H     -2.671482    1.529178    1.260663
H     -4.009612    1.246717    0.124131
H     -3.542110   -0.068374    1.287765
H      3.193811   -0.956943    1.778958
H      3.684415   -0.967464    0.073131
H      3.824583    0.541948    1.074071
H     -1.210452   -0.829327    1.760598
H     -0.093557    0.275451   -2.195417
H     -0.266594   -1.344548   -1.511002
H      1.174422   -0.962459    2.318613
H      2.048833    0.374912   -1.618816
H      1.949800   -1.345114   -1.133027
H     -0.510706    1.369164   -0.054173
H      2.471073    1.872203   -0.100316
