78

C     -5.718902   -0.305942   -1.133666
C     -5.616377   -0.858810    1.231448
C      4.012642   -1.936286   -1.221272
C      5.439957    1.990656    1.879780
C     -3.170962    1.734505   -1.493440
C      0.302797   -1.068229    1.711155
C     -0.565474   -0.904191   -1.950776
C     -3.198206   -1.366704   -0.616992
C     -4.461835    2.554723    0.784642
C     -3.039460    2.098799    0.865964
C     -1.818455   -1.763619   -0.068868
C      4.512797   -1.424731    1.108266
C      5.495750   -0.309236    0.868281
C      2.351043   -2.425347    0.480462
C      1.057000   -2.249724   -0.266407
C      1.037464    1.285904   -0.719683
C      3.373138    0.883771    1.065204
C      1.441607    0.118255   -0.185402
C      2.898868   -0.033553   -0.059389
C     -0.374909    1.588033   -0.910364
C     -3.565755   -0.131387    0.155490
C     -5.421044    1.451335    0.609105
C     -1.296598    0.707250   -0.145219
C      5.060339    1.699207   -0.484436
C     -5.034639    0.077747    0.157592
C      3.392827   -1.418295    0.082988
C      4.881498    1.049105    0.835556
C     -2.729325    1.062535   -0.240719
C      0.458279   -0.929364    0.235418
C     -0.884736   -0.680935   -0.474367
O     -0.726923    2.520960   -1.665719
O     -6.603120    1.649035    0.840148
O      5.752571    1.136352   -1.368663
O      4.486599    2.921276   -0.788285
H     -6.415180   -1.180631   -1.017917
H     -5.022847   -0.596635   -1.934988
H     -6.406487    0.535044   -1.444110
H     -5.997689   -1.796139    0.756169
H     -6.443635   -0.392079    1.773843
H     -4.849227   -1.154974    1.957543
H      3.270499   -1.763635   -2.027823
H      4.992622   -1.505922   -1.417959
H      4.091244   -3.052813   -1.079437
H      4.818548    1.953319    2.793379
H      5.469681    3.032067    1.490969
H      6.476105    1.676589    2.082443
H     -2.790754    1.337705   -2.429440
H     -3.012254    2.849733   -1.401171
H     -4.290011    1.653245   -1.562549
H     -0.703639   -0.739144    2.105640
H      0.321543   -2.155326    2.027489
H      1.039401   -0.523506    2.314195
H     -0.556534   -2.021174   -2.126719
H      0.422410   -0.551210   -2.238044
H     -1.308104   -0.513760   -2.636195
H     -3.072495   -1.135774   -1.689510
H     -3.939636   -2.150994   -0.486438
H     -4.578644    3.342531   -0.006896
H     -4.707020    3.061462    1.739975
H     -2.363582    2.950013    0.661400
H     -2.776416    1.689638    1.857577
H     -1.917409   -1.944768    0.999700
H     -1.543732   -2.687358   -0.616995
H      5.087706   -2.378680    1.022251
H      4.125234   -1.397845    2.141937
H      6.213186   -0.331421    1.726223
H      6.099835   -0.493768   -0.035790
H      2.278326   -2.432525    1.563662
H      2.738017   -3.445970    0.188161
H      0.397196   -3.100422   -0.065336
H      1.315139   -2.181820   -1.341066
H      1.762261    2.047011   -1.030214
H      3.204677    0.469506    2.057518
H      2.858835    1.858871    0.898867
H      3.381869    0.397357   -0.988549
H     -3.266645   -0.336853    1.229028
H     -0.989172    0.880325    0.933891
H      4.858322    3.507638   -1.545941
