27

C      3.752369   -0.075111    0.104018
C     -1.905636   -1.213659    0.039262
C     -2.623201    0.064840    0.333047
C     -0.439699   -1.037131   -0.158276
C     -2.299470    1.011699   -0.819303
C      1.311272    0.671809   -0.282552
C      2.389959   -0.327892   -0.416899
C     -0.015993    0.197668   -0.874412
N     -0.906923    1.307496   -0.797296
O      2.160027   -1.380075   -0.964963
Cl     0.684109    0.000000    0.000000
H      4.047223    0.974133   -0.179271
H      4.487189   -0.813052   -0.211844
H      3.692196   -0.073956    1.221917
H     -2.399011   -1.712655   -0.817662
H     -2.050271   -1.887765    0.930853
H     -2.253402    0.554886    1.250881
H     -3.704670   -0.086531    0.353548
H      0.030026   -1.024911    0.865009
H     -0.065220   -1.938272   -0.684130
H     -2.645109    0.529723   -1.741451
H     -2.854071    1.944964   -0.615703
H      1.633400    1.629338   -0.789880
H      1.183804    0.958002    0.783085
H      0.178295   -0.089175   -1.949723
H     -0.703083    1.815625    0.103291
H     -0.684109    0.000000    0.000000
