40

C     -2.828675   -0.239464   -1.378445
C     -0.303441    4.023573    0.311035
C      3.014422   -0.094388    0.757404
C      1.794007   -0.471833   -1.263862
C      4.140621    0.203414    0.035615
C      2.930567   -0.171546   -2.008713
C     -2.524433   -2.109373    0.508672
C     -2.381661   -0.973373    1.532857
C     -0.089201   -2.010330    0.357617
C      1.813887   -0.439383    0.113069
C      4.100247    0.165515   -1.336331
C     -1.340102   -1.760837   -0.404321
C      0.591451   -0.787394    0.885918
C     -1.718693    0.112449    0.731517
C     -0.282972    0.371631    1.176275
C      0.119625    1.664343    0.642137
I      5.830141    0.623611   -2.418689
N     -1.613804   -0.357346   -0.632926
O      1.183476    1.823756    0.014369
O     -0.711873    2.754736    0.841533
H     -2.683076    0.613273   -2.102837
H     -3.009085   -1.194416   -1.925350
H     -3.673871    0.058076   -0.740848
H      0.782836    3.977536    0.015788
H     -0.396555    4.829254    1.051660
H     -0.845400    4.238205   -0.638089
H      3.018975   -0.071925    1.846112
H      0.883721   -0.736249   -1.756335
H      5.050490    0.464959    0.527507
H      2.870312   -0.208919   -3.070070
H     -2.383819   -3.094533    0.979801
H     -3.439023   -2.012628   -0.086121
H     -1.705857   -1.359417    2.348640
H     -3.359569   -0.683332    1.951737
H     -0.320613   -2.736117    1.162664
H      0.600737   -2.583525   -0.333976
H     -1.387211   -2.297111   -1.355388
H      1.010977   -1.081858    1.903945
H     -2.341011    1.018219    0.823920
H     -0.396549    0.532747    2.306650
