40

C     -3.372103   -1.138822    0.797950
C     -2.046552    3.672378    0.390355
C      2.780920   -0.066691   -1.439330
C      2.686385    0.691096    0.763034
C      4.071646    0.380373   -1.555226
C      3.987832    1.147183    0.660226
C     -1.212334   -2.619268   -0.130858
C     -1.569352   -1.755601   -1.315937
C      0.320787   -1.133458    1.083492
C      2.017150    0.065937   -0.269244
C      4.673653    0.987933   -0.502551
C     -1.093715   -1.680756    1.041406
C      0.654317   -0.451543   -0.221243
C     -1.714705   -0.411528   -0.714296
C     -0.436392    0.430660   -0.720878
C     -0.765384    1.613289    0.050054
I      6.660171    1.698618   -0.619288
N     -2.032598   -0.628945    0.699471
O     -0.197210    1.875005    1.130157
O     -1.731482    2.513037   -0.377472
H     -3.975804   -0.456383    1.440078
H     -3.427580   -2.153682    1.238167
H     -3.848884   -1.206011   -0.203871
H     -3.093059    3.992346    0.195746
H     -1.345063    4.470754    0.064535
H     -1.894114    3.403173    1.455970
H      2.333855   -0.548064   -2.304776
H      2.207704    0.834403    1.696045
H      4.655995    0.272094   -2.469324
H      4.452655    1.628007    1.505494
H     -2.017341   -3.344903    0.112993
H     -0.256422   -3.143348   -0.301894
H     -0.904705   -1.849166   -2.174550
H     -2.578059   -2.104779   -1.691455
H      0.993459   -2.007977    1.224140
H      0.429370   -0.410968    1.907858
H     -1.309326   -2.143581    2.007194
H      0.640138   -1.306987   -0.987716
H     -2.501894    0.219615   -1.156851
H     -0.241959    0.666560   -1.784272
