33

C      4.635428    0.709175   -0.931042
C      4.834446    0.594099    0.435703
C      3.409964    0.385935   -1.453480
C     -3.169831    0.610810   -1.866814
C      3.800342    0.156400    1.257065
C      2.373566   -0.052782   -0.630420
C     -3.641295   -0.614426   -1.074150
C     -2.431686    1.370551   -0.764867
C      1.513316   -0.629313    1.644242
C      2.568397   -0.167472    0.724095
C     -2.412803   -0.927783   -0.264634
C     -2.749234   -1.407031    1.080193
C     -0.391580    0.388549    0.470963
N     -1.667044    0.308285   -0.153431
O     -3.400511   -2.470655    1.260168
O     -2.365785   -0.711678    2.207291
O      0.164196    1.527928    0.507106
O      0.247717   -0.695490    1.024117
H      5.430076    1.049346   -1.591076
H      5.800544    0.847317    0.859400
H      3.241285    0.471541   -2.520670
H     -3.994728    1.176130   -2.293354
H     -2.424755    0.237601   -2.580489
H      3.969359    0.070644    2.326119
H      1.429479   -0.297163   -1.089138
H     -4.416301   -0.246208   -0.358852
H     -3.980742   -1.423472   -1.717770
H     -1.808977    2.137179   -1.219315
H     -3.192355    1.786629   -0.070839
H      1.796464   -1.638439    1.994769
H      1.513552    0.049943    2.524917
H     -1.803709   -1.727736   -0.754950
H     -2.876796   -0.868413    3.086703
