38

C     -1.579190   -3.700366    0.324713
C      4.005538   -0.497794   -0.663986
C     -2.054045    3.377848   -0.294758
C     -1.881302   -0.111159   -0.776152
C     -2.076007   -1.506311   -0.480249
C      0.127780   -1.721879    0.529256
C      1.062690   -1.214779   -0.480355
C     -1.906020    0.868468    0.349694
C     -1.172918   -2.249580    0.105321
C      3.068787    0.165019   -0.003890
C      1.602156    0.164620   -0.338019
C      1.006583    1.139851    0.548028
C      0.179367    2.241191   -0.099736
C      3.223723    1.008945    1.143642
C     -1.216352    2.129216   -0.079760
O      4.196241    1.013967    1.961972
O      2.116001    1.812104    1.187411
O     -0.374947    1.955571   -1.321952
H     -2.599425   -3.778660    0.696568
H     -0.898639   -4.069342    1.121735
H     -1.413900   -4.273156   -0.604551
H      5.029449   -0.417328   -0.325071
H      3.733082   -1.094910   -1.512613
H     -1.421120    4.281456   -0.219624
H     -2.554475    3.367804   -1.284927
H     -2.783339    3.418056    0.548479
H     -1.022343    0.151951   -1.426601
H     -2.740196    0.214349   -1.474572
H     -3.061955   -1.959989   -0.773866
H      0.070336   -1.127941    1.474932
H      0.644512   -2.650076    0.988133
H      0.681305   -1.437620   -1.524664
H      1.999295   -1.872660   -0.530803
H     -1.606380    0.492039    1.331352
H     -2.993114    1.157014    0.523450
H      1.592866    0.608149   -1.385351
H      0.403353    0.829109    1.411120
H      0.612601    3.286822   -0.077103
