38

C      3.629554   -1.456172   -0.041660
C     -2.958299   -2.915301    1.032542
C     -1.341266    3.579695   -0.206584
C      1.487345    1.720925   -0.017904
C      2.429888    0.597993    0.021667
C      1.215761   -1.540436   -0.691327
C      0.152598   -2.001841    0.223643
C      0.478462    1.904683   -1.052168
C      2.314892   -0.686677   -0.244382
C     -2.156784   -1.885008    0.899444
C     -1.270274   -1.514854   -0.204389
C     -1.067588   -0.060484   -0.033445
C     -1.884587    1.028203   -0.463407
C     -1.967738   -0.811552    1.900544
C     -0.932991    2.222657   -0.642024
O     -2.601532   -0.638614    2.975632
O     -0.924433   -0.045577    1.365199
O     -1.869346    1.676210   -1.663298
H      4.188471   -1.053676    0.823341
H      3.427450   -2.515357    0.221232
H      4.204314   -1.468859   -0.982321
H     -2.998879   -3.628237    0.217711
H     -3.559259   -3.073370    1.896292
H     -2.252208    3.509381    0.424412
H     -1.524492    4.194452   -1.128570
H     -0.498254    4.056643    0.328176
H      0.967372    1.868147    0.988610
H      2.146228    2.652990    0.034168
H      3.454255    0.902841    0.350743
H      1.646083   -2.539403   -1.061904
H      0.861976   -1.155238   -1.697487
H      0.344391   -1.558025    1.231643
H      0.027028   -3.070525    0.381464
H      0.722320    2.905517   -1.575571
H      0.574545    1.278680   -1.986834
H     -1.531354   -1.875317   -1.180948
H     -0.193702    0.067648   -0.649461
H     -2.739948    1.327860    0.207222
