35

C     -3.842149    0.029492    0.270047
C      1.319354   -0.915206   -0.508338
C      0.209226   -1.732305    0.004802
C      2.089516   -0.148423    0.573141
C     -2.639709    0.604502   -0.521506
C     -0.986962   -0.947268    0.507443
C     -2.515368    1.968342   -0.093622
C     -1.907210   -2.010327    1.036088
C      4.255433    1.206369    0.498209
N      4.296337    1.301484    1.709706
N      5.299320    1.549867   -0.442148
N      3.068964    0.634840   -0.131216
N     -1.599021   -0.289578   -0.613433
O     -1.752057    2.293134    0.786030
O     -3.281434    2.935715   -0.693266
O     -2.492201   -1.944184    2.080529
O     -2.060497   -3.128746    0.243132
H     -4.658552    0.750038    0.111807
H     -3.585366    0.167337    1.365857
H     -4.132053   -0.957181   -0.028782
H      1.008832   -0.180220   -1.282305
H      2.047667   -1.596308   -0.987143
H      0.588494   -2.300962    0.907933
H     -0.112551   -2.469616   -0.745818
H      2.698302   -0.927206    1.142225
H      1.463691    0.361363    1.279100
H     -3.114417    0.606244   -1.592136
H     -0.729977   -0.187626    1.241998
H      4.907666    1.600012    2.409171
H      5.317811    2.456852   -0.948423
H      6.034268    0.854234   -0.609612
H      2.948265    0.895411   -1.151665
H     -1.385562   -0.711214   -1.553497
H     -3.706832    3.724092   -0.194720
H     -3.051227   -3.492961    0.266422
