33

C     -4.373838    1.016312   -0.518482
C      3.301909    1.785198   -0.616341
C     -3.429802   -0.955653    0.611020
C     -2.336204   -1.629414    1.091698
C      1.873055   -1.503022   -0.387062
C      3.002931   -0.594965   -0.844877
C     -1.950721    0.796246   -0.107638
C      1.100488    0.877483   -0.970834
C     -3.218537    0.266727    0.008723
C     -0.823667    0.118859    0.379015
C      0.620808    0.441189    0.390838
C     -1.042898   -1.093057    0.974957
C      1.244300   -0.865174    0.815341
N      0.194476   -1.638357    1.407289
N      2.512642    0.706750   -1.159144
H     -4.511394    0.795035   -1.576914
H     -5.275279    0.843964    0.091406
H     -4.113005    2.107880   -0.435424
H      2.660076    2.699195   -0.584194
H      4.140348    1.971869   -1.323200
H      3.704950    1.590467    0.383008
H     -4.424744   -1.370324    0.701882
H     -2.492997   -2.582120    1.562081
H      2.320352   -2.469253   -0.058450
H      1.167169   -1.654686   -1.218200
H      3.447676   -1.039056   -1.780364
H      3.824687   -0.603668   -0.102714
H     -1.740611    1.754023   -0.574093
H      0.842154    1.932930   -1.122240
H      0.590473    0.235249   -1.736135
H      0.817566    1.225970    1.153546
H      2.038406   -0.718307    1.578646
H      0.329230   -2.448287    2.036634
