37

C      4.383734    1.191185    0.215056
C     -3.166983    1.974786    0.870665
C      3.427399   -1.116298    0.430188
C      2.320149   -1.954126    0.351108
C     -2.508771   -1.343083   -0.633463
C     -3.075539    0.083543   -0.616202
C      1.995162    0.694802   -0.190132
C     -1.131274    0.745876    0.607703
C      3.241539    0.222799    0.152115
C      0.920141   -0.160356   -0.259437
C     -0.507750    0.132344   -0.607155
C      1.075028   -1.494413    0.011324
C     -1.034853   -1.225550   -0.940391
N     -0.220466   -2.102298   -0.147856
N     -2.572781    0.694454    0.592724
Cl     0.689513    0.000000    0.000000
Cl     0.691538    0.000000    0.000000
H      4.233072    1.962999   -0.572640
H      4.428543    1.699254    1.182005
H      5.294776    0.601393   -0.001800
H     -3.552627    2.489280   -0.023902
H     -2.390606    2.602876    1.357681
H     -3.995386    1.819939    1.584728
H      4.400388   -1.504923    0.700950
H      2.472388   -3.016821    0.572785
H     -3.022916   -1.887680   -1.431667
H     -2.621002   -1.821867    0.355003
H     -4.165233    0.092148   -0.620844
H     -2.644380    0.610576   -1.490892
H      1.862737    1.767978   -0.409614
H     -0.790267    1.794650    0.679161
H     -0.791498    0.173787    1.498198
H     -0.567573    0.770892   -1.504492
H     -0.866518   -1.462172   -1.997344
H     -0.428635   -3.035974    0.286435
H     -0.689513    0.000000    0.000000
H     -0.691538    0.000000    0.000000
