37

C      3.763663   -0.650617    2.216753
C     -3.810425    0.019545    0.143242
C      3.416237   -0.245211   -0.232743
C      2.592538   -0.154045   -1.341184
C     -1.025698    1.455378   -1.052705
C     -2.098998    1.704872   -0.052727
C      1.529691   -0.749248    1.075268
C     -1.579746   -0.424284    0.940149
C      2.891950   -0.547746    1.007967
C      0.693764   -0.657377   -0.047054
C     -0.760784   -0.830702   -0.248892
C      1.230621   -0.355343   -1.273622
C     -1.035267    0.007703   -1.472992
N      0.173530   -0.312388   -2.252376
N     -2.574657    0.542035    0.619110
Cl     0.691697    0.000000    0.000000
Cl     0.684651    0.000000    0.000000
H      3.243488   -0.238998    3.127079
H      4.115752   -1.662328    2.405041
H      4.672008    0.006309    2.104499
H     -3.754037   -0.991862   -0.291625
H     -4.564555    0.025645    0.981935
H     -4.234171    0.710675   -0.627513
H      4.473341   -0.078174   -0.343460
H      3.007546    0.087139   -2.334040
H     -1.135427    2.137848   -1.942341
H     -0.011210    1.656022   -0.617120
H     -1.722557    2.414510    0.733613
H     -2.946763    2.218521   -0.551657
H      1.101547   -0.983627    2.019955
H     -0.954031   -0.096324    1.807688
H     -2.115673   -1.345820    1.303247
H     -0.936037   -1.901758   -0.535893
H     -1.942645   -0.283213   -2.010419
H      0.297007   -0.477136   -3.257187
H     -0.691697    0.000000    0.000000
H     -0.684651    0.000000    0.000000
