38

C      3.407290   -1.289506   -1.091749
C      4.336735    0.109868    0.654310
C     -1.283827   -2.445903   -0.203648
C      1.744213    1.548218    0.013559
C      0.406839    2.130400    0.295811
C      0.800822   -0.581191   -0.652612
C     -2.078204    1.751877    0.463138
C      3.174937   -0.421113   -0.123439
C     -1.695334   -1.025975   -0.505997
C      1.824884    0.062551    0.240955
C     -0.732398    1.185579    0.115966
C     -0.578051   -0.064710   -0.318124
C     -3.157155    0.839858   -0.101004
C     -2.805078   -0.558502    0.428793
O     -4.410416    1.228781    0.273783
O     -3.887902   -1.398637    0.437677
H      4.403069   -1.611361   -1.321227
H      2.566660   -1.693000   -1.675325
H      5.073568    0.492470   -0.080430
H      4.017274    0.889992    1.373523
H      4.792667   -0.726893    1.225535
H     -2.207856   -3.022810   -0.025101
H     -0.804040   -2.853781   -1.108395
H     -0.664253   -2.524639    0.708373
H      2.482337    2.044086    0.688478
H      2.059994    1.732921   -1.034188
H      0.327724    2.617481    1.303638
H      0.247505    2.976569   -0.429628
H      1.054881   -0.339719   -1.708716
H      0.876535   -1.670620   -0.535792
H     -2.157897    1.699195    1.569008
H     -2.193691    2.789634    0.120351
H     -2.084631   -1.006188   -1.538287
H      1.571550   -0.189634    1.307907
H     -3.027657    0.872797   -1.212063
H     -2.319358   -0.463754    1.436950
H     -5.064312    0.752085   -0.328987
H     -4.017426   -1.836426    1.336960
