38

C     -3.003431   -1.209324    2.442306
C     -4.193038    1.818800   -1.560570
C     -5.036141    1.333004   -0.586306
C     -2.838618    1.517137   -1.558832
C     -4.537207    0.531174    0.414487
C      1.657518   -1.474993   -0.639584
C      3.126019   -1.736038   -1.017148
C      2.063833    0.588080    0.569737
C     -1.172169   -0.552302    0.902640
C      5.680930    0.308341    0.552686
C      1.467429    0.006707   -0.708939
C     -2.343961    0.706273   -0.543596
C     -1.073302    0.214465   -0.239423
C      3.969179   -0.777795   -0.298950
C      3.540558    0.296911    0.437861
C     -3.174427    0.219232    0.428422
C      0.119755    0.475753   -1.006840
N      5.322103   -0.742599   -0.206631
N      4.579339    0.944133    0.946278
N     -2.456156   -0.536998    1.292878
O     -0.010331    1.195722   -2.062919
H     -3.670139   -2.014431    2.057388
H     -2.187628   -1.671355    3.035862
H     -3.563385   -0.530577    3.107904
H     -4.605770    2.450791   -2.343117
H     -6.096330    1.590420   -0.618485
H     -2.177026    1.894445   -2.317451
H     -5.181044    0.132302    1.198875
H      0.991988   -2.053367   -1.275442
H      1.597281   -1.876275    0.415148
H      3.360048   -2.794427   -0.785175
H      3.188641   -1.541741   -2.107725
H      1.867222    1.651336    0.684853
H      1.720412   -0.038757    1.415958
H     -0.393405   -1.101273    1.445346
H      6.706835    0.580665    0.795976
H      2.159310    0.394672   -1.521883
H      4.595108    1.801890    1.552195
