66

C     -3.225211   -5.834003   -1.364515
C      5.771396   -2.923985    1.131856
C     -1.846189   -5.376598   -1.818366
C     -3.065737    3.682208    1.135695
C      2.700551   -1.983575    2.987349
C     -3.118929   -0.808713   -1.050257
C     -2.970541    0.445337   -0.481308
C      1.568980   -1.245458    2.811385
C     -3.517828    4.910654    0.678245
C     -1.497117   -4.088554   -1.102101
C     -1.176048    3.804644   -0.297275
C     -1.173340   -1.582612    0.055090
C      3.355999   -1.350954    0.763243
C      2.589847    0.204302   -1.689163
C     -1.834065    7.145907   -1.593321
C     -1.897612    3.129453    0.649690
C      3.607476   -2.036246    1.945652
C     -2.231643   -1.833523   -0.793913
C     -1.904594    0.670858    0.364430
C      1.260328   -0.540120    1.657214
C     -1.000690   -0.337935    0.637949
C     -2.800445    5.609709   -0.280964
C      2.178677   -0.605081    0.627825
C     -1.635548    5.045585   -0.757392
C      2.829742   -1.032477   -2.436364
C     -1.447837    1.852103    1.138793
C      0.049691    0.196238    1.579118
C      0.067228    1.615411    1.074095
C      0.810205    2.553402    1.899473
O      2.391012   -2.134045   -2.051537
O      3.567709   -1.047619   -3.629132
O      0.163303    3.440092    2.529194
O      2.184842    2.560987    2.058566
O      4.769170   -2.777473    2.089272
O     -2.435557   -3.065894   -1.393699
O      1.880519    0.088347   -0.511060
O     -3.021384    6.848087   -0.910103
O     -1.111308    5.929942   -1.696135
H     -3.977634   -5.422915   -2.038830
H     -3.426961   -5.500688   -0.323382
H     -3.194708   -6.936711   -1.368766
H      6.577744   -2.167143    1.294269
H      5.451894   -2.849467    0.089235
H      6.198716   -3.956456    1.248343
H     -1.880728   -5.173662   -2.890456
H     -1.087862   -6.129683   -1.523442
H     -3.685768    3.205381    1.883926
H      2.913203   -2.529505    3.912999
H     -3.981858   -0.953357   -1.720312
H     -3.701467    1.223769   -0.717180
H      0.863575   -1.218326    3.652223
H     -4.426154    5.375927    1.033777
H     -0.504920   -3.718808   -1.452348
H     -1.430766   -4.211945   -0.016123
H     -0.252256    3.466858   -0.744065
H     -0.488963   -2.396833    0.242876
H      4.057341   -1.373347   -0.061896
H      3.567225    0.712329   -1.492235
H      1.996599    0.889655   -2.364594
H     -1.180361    7.858837   -1.034281
H     -2.092394    7.535791   -2.583721
H     -1.738953    1.685337    2.223159
H     -0.470208    0.241536    2.575783
H      0.287054    1.669822   -0.008933
H      4.070141   -1.865189   -3.902065
H      2.703416    3.410391    2.128513
