51

C      1.837457   -0.333861   -1.579903
C     -2.255044   -1.703325   -0.817807
C     -0.747805   -1.769803   -0.900112
C      1.138005    1.896355    0.437669
C      3.165236   -1.723566    1.030969
C      4.207461    1.580486    0.136940
C      1.856855   -1.835867    0.336284
C     -0.103311    1.898493   -0.357660
C      5.425154    0.896915    0.141853
C     -1.660196    0.509642   -1.669471
C     -2.063485    0.818935    0.645541
C     -4.349930   -0.256238    0.722695
C     -2.828493   -0.386761   -1.212330
C      3.279488    0.649326    0.468475
C      1.794823    0.595915    0.666235
C      3.948531   -0.541804    0.659533
C     -0.178329   -0.604961   -0.094794
C      1.308189   -0.533292   -0.207346
C     -0.910066    0.661102   -0.357055
C     -3.316161    0.463965   -0.064786
O     -4.870819    0.604455    1.720860
O     -3.904997    1.600496   -0.670333
O      5.229959   -0.357278    0.455973
H      2.846638    0.170966   -1.524908
H      2.044519   -1.316016   -2.066711
H      1.235396    0.259065   -2.260170
H     -2.632352   -2.491153   -1.533243
H     -2.522113   -2.047270    0.196779
H     -0.437750   -2.705845   -0.351466
H     -0.341816   -1.855798   -1.902303
H      1.881588    2.570752   -0.082400
H      0.999348    2.393662    1.442577
H      3.740625   -2.667228    0.819251
H      3.032281   -1.688152    2.151145
H      4.016960    2.602993   -0.075224
H      1.124221   -2.263005    1.082668
H      1.879189   -2.578504   -0.505342
H     -0.749190    2.747105    0.021381
H      0.097533    2.197789   -1.428725
H      6.384608    1.323413   -0.077126
H     -2.048459    1.478752   -2.042284
H     -1.134479   -0.058204   -2.429827
H     -1.890904    0.136251    1.493362
H     -2.094052    1.864708    1.021674
H     -5.225301   -0.450939    0.049360
H     -4.057974   -1.197381    1.178999
H     -3.578348   -0.436658   -2.016293
H      1.650487    0.249857    1.727750
H     -0.388863   -0.888718    0.981914
H     -5.651597    1.101493    1.395862
H     -4.182717    1.418733   -1.592427
