61

C      3.494538   -0.348618    2.400016
C      2.274908    4.493602    1.051936
C     -3.539621    1.373559    1.014708
C     -3.925061    0.068299   -0.998488
C      4.276516   -0.441060   -1.048703
C     -1.284034   -1.321088   -1.880665
C      1.316039    0.307851   -1.963443
C      3.972320   -0.875442    1.297921
C     -3.097076   -2.298278    0.515506
C     -3.597141   -1.050781    1.150657
C     -1.620458   -2.362712    0.279706
C      2.679478   -2.141341   -0.367398
C      1.542083    3.205651    1.118074
C      1.216990   -2.262326   -0.141661
C     -1.077227    1.371927   -0.319599
C      0.411583   -1.056934   -0.016230
C     -1.687539    0.072847    0.178254
C      0.359826    1.355877    0.101882
C     -3.155586    0.094807    0.252454
C      3.222792   -0.793484   -0.017373
C     -1.037890   -1.152788   -0.417096
C      1.127821    0.173586   -0.511017
O      1.342838    2.636286    2.215313
O      0.727813   -3.356553   -0.066524
O     -1.345860    1.699778   -1.598865
O      1.034369    2.544586    0.025214
O      2.356905    0.220319    0.106660
H      4.072578   -0.437949    3.307560
H      2.544507    0.167190    2.417206
H      2.007229    4.968761    0.088487
H      3.367479    4.339754    1.049659
H      1.937513    5.185410    1.859941
H     -2.837500    1.548222    1.836420
H     -4.547557    1.208928    1.468154
H     -3.615263    2.224303    0.313681
H     -5.001548    0.306125   -0.737861
H     -3.980459   -0.905977   -1.521175
H     -3.647963    0.817520   -1.752366
H      5.261959   -0.820690   -0.710150
H      4.324656    0.663420   -1.157378
H      4.092789   -0.946896   -2.021162
H     -2.018245   -2.161547   -2.086607
H     -0.357653   -1.697114   -2.405610
H     -1.720562   -0.457382   -2.391706
H      1.755976   -0.592074   -2.384901
H      2.106891    1.107067   -2.112012
H      0.435586    0.560607   -2.569215
H      4.920907   -1.395147    1.262095
H     -3.323070   -3.138650    1.235700
H     -3.643293   -2.580019   -0.408568
H     -3.142254   -0.962076    2.156718
H     -4.686912   -1.058485    1.145155
H     -1.513324   -3.233017   -0.440403
H     -1.083020   -2.563826    1.231622
H      2.911394   -2.450559   -1.422240
H      3.252673   -2.894123    0.243237
H     -1.559583    2.164554    0.330848
H      0.348935   -0.877238    1.109291
H     -1.337550    0.039481    1.264448
H      0.324947    1.075935    1.181878
H     -1.639588    2.637921   -1.741984
