42

C      5.173268   -1.324969   -0.358924
C     -3.832060    1.798611    2.944302
C      3.689303   -1.154859   -0.551810
C      2.958365    1.325865   -1.665417
C      1.608990    0.630483   -1.446505
C     -5.249740    0.083097   -0.747971
C     -4.796163    0.644623    0.455431
C      3.542911    1.237691   -0.296954
C      0.992370   -1.306793    0.016567
C      1.706484    0.003875   -0.097920
C     -4.358196   -0.624476   -1.522547
C     -3.493563    0.495580    0.858363
C     -2.600100   -0.211532    0.086170
C     -3.037195   -0.768714   -1.101955
C     -1.208351   -0.405419    0.461353
I     -5.010928   -1.471836   -3.318241
N     -0.407672   -1.059452   -0.269156
N      3.131185   -0.058327    0.160180
O     -2.163014   -1.487129   -1.903470
O     -0.706227    0.132620    1.658242
O     -3.076823    1.055360    2.040256
H      5.714814   -0.692125   -1.104324
H      5.530479   -1.053735    0.634147
H      5.498702   -2.369552   -0.551654
H     -4.062606    1.125337    3.820397
H     -4.744188    2.223476    2.527990
H     -3.157664    2.590464    3.370807
H      3.233532   -2.086197   -0.095897
H      3.447891   -1.218394   -1.622789
H      3.540609    0.779247   -2.420043
H      2.807026    2.402069   -1.948354
H      0.822562    1.440958   -1.449420
H      1.365431   -0.053646   -2.274110
H     -6.272622    0.189904   -1.079877
H     -5.557019    1.181412    1.000421
H      4.621165    1.421984   -0.235413
H      3.000918    1.984199    0.355895
H      1.354797   -1.972798   -0.822588
H      1.176477   -1.838582    0.949560
H      1.306032    0.739116    0.637446
H     -2.434569   -1.909514   -2.772686
H     -0.054611   -0.417925    2.238358
