42

C      5.088137   -0.513877    1.587286
C     -4.760191    1.079104    2.611564
C      3.688771   -0.155696    1.123883
C      3.402117    0.465096   -1.718821
C      1.986354    0.441868   -1.161923
C     -5.119837    0.112543   -1.570232
C     -5.001075    0.426804   -0.209670
C      4.094022   -0.766208   -1.141747
C      0.903048   -0.941150    0.628160
C      1.972847   -0.862367   -0.421065
C     -4.007264   -0.353753   -2.225505
C     -3.816071    0.283015    0.478405
C     -2.683085   -0.194524   -0.200031
C     -2.825876   -0.493052   -1.523816
C     -1.427256   -0.346853    0.513678
I     -4.096009   -0.854068   -4.284146
N     -0.364726   -0.776651   -0.046581
N      3.306347   -1.022890    0.056816
O     -1.726948   -0.964666   -2.214784
O     -1.387766   -0.011423    1.852864
O     -3.729573    0.597853    1.808995
H      5.240847   -1.621704    1.554755
H      5.168268   -0.223233    2.658767
H      5.869020    0.036058    1.047053
H     -4.785844    0.524681    3.590766
H     -4.638702    2.159914    2.875809
H     -5.779680    0.981999    2.208023
H      3.012929   -0.234107    1.974868
H      3.734291    0.915953    0.834375
H      3.937558    1.389005   -1.445413
H      3.337427    0.321677   -2.816485
H      1.781390    1.306021   -0.498679
H      1.219299    0.479493   -1.972456
H     -6.068523    0.233405   -2.099048
H     -5.919699    0.787109    0.230043
H      5.151012   -0.586949   -0.931772
H      3.909262   -1.625798   -1.834610
H      1.045218   -0.225692    1.453895
H      0.928074   -1.968557    1.047412
H      1.776682   -1.691118   -1.145630
H     -1.721831   -1.212619   -3.184715
H     -0.692963   -0.303031    2.509714
