53

C      5.225163   -0.378361    2.286259
C     -5.402389   -0.770719    2.453253
C      5.803015   -0.404333    0.893031
C      4.933912   -1.118161   -0.086144
C      3.535353   -0.481484   -0.214119
C      3.611941    0.912433   -0.664360
C      2.415122    1.718813   -0.772594
C      1.251992    1.502586   -1.579209
C      0.195229    0.505030   -1.449993
C      0.388996   -0.941027   -1.474029
C     -0.854945   -1.796376   -1.514813
C     -4.137131    1.234849   -0.437006
C     -4.454513    0.975077    1.030747
C     -1.817867   -1.770565   -0.452258
C     -3.518259   -0.027726   -1.060104
C     -4.758391   -0.506517    1.115393
C     -2.617417   -0.639515   -0.018782
N     -3.532553   -1.221739    1.030069
H      4.399997   -1.083308    2.428142
H      5.997408   -0.624793    3.067788
H      4.932488    0.673398    2.493973
H     -6.063114   -1.679424    2.340972
H     -4.688548   -0.957842    3.252537
H     -6.083461    0.056379    2.744501
H      6.149464    0.578519    0.529242
H      6.750819   -1.017801    0.978980
H      4.774837   -2.173619    0.130717
H      5.387457   -1.017171   -1.091316
H      2.899494   -0.688864    0.638994
H      3.123488   -1.083103   -1.097096
H      4.135080    0.947263   -1.700718
H      4.422720    1.459297   -0.032416
H      2.820968    2.805612   -1.009343
H      2.048073    1.991940    0.326575
H      0.681857    2.530315   -1.635974
H      1.639442    1.480000   -2.688613
H     -0.630493    0.824036   -2.172473
H     -0.265741    0.721618   -0.402785
H      1.048603   -1.249545   -2.308967
H      0.950092   -1.299250   -0.530898
H     -0.432830   -2.860237   -1.620430
H     -1.257254   -1.627849   -2.553356
H     -3.449947    2.086479   -0.496390
H     -5.107880    1.460688   -0.928232
H     -3.525518    1.195014    1.594709
H     -5.306276    1.600458    1.357034
H     -2.541875   -2.661808   -0.592985
H     -1.274292   -2.148733    0.497094
H     -4.301041   -0.693387   -1.428040
H     -2.949313    0.338242   -1.913184
H     -5.421002   -0.803568    0.269573
H     -2.126961    0.157507    0.539289
H     -3.004001   -1.273753    1.927756
