50

C     -1.084937    1.698930   -0.978257
C     -1.483800    2.775107   -1.779983
C     -2.940717    2.030519    0.428352
C      4.491263   -0.024482    1.208438
C      3.450595    1.259272   -0.464182
C     -2.993139   -4.502517   -0.019589
C     -3.707594   -2.713645    1.323937
C     -0.713087   -1.572996   -0.619981
C     -1.800556    1.316040    0.125306
C      3.349536    0.314960    0.523628
C     -3.879777   -4.013666    0.911186
C     -1.817977   -2.451004   -0.103633
C     -2.629431    3.467904   -1.447904
C     -1.961725   -3.744204   -0.537556
C     -3.362584    3.105129   -0.349718
C      5.721188    0.572089    0.910764
C      4.673255    1.859097   -0.767390
C     -2.681100   -1.926597    0.822351
C     -0.318077   -0.671615    0.558722
C      5.812046    1.519972   -0.083745
C     -1.426551    0.206593    0.986324
C      2.106290   -0.346661    0.887581
O     -4.917125   -4.823361    1.412335
O     -3.057775    4.554884   -2.233379
O     -1.089425   -4.303937   -1.489717
O     -4.509868    3.829963   -0.051270
O      6.882461    0.241737    1.591263
O      4.765241    2.805702   -1.760214
O      7.050349    2.116987   -0.379549
O      2.062481   -1.207476    1.801577
O     -2.561075   -0.597295    1.288296
O      0.894415   -0.069225    0.249874
H     -0.180928    1.214668   -1.309336
H     -0.905313    3.068038   -2.653846
H     -3.521117    1.756297    1.283501
H      4.487830   -0.758339    1.997120
H      2.538409    1.515108   -0.994781
H     -3.097257   -5.524774   -0.369821
H     -4.394291   -2.280794    2.067623
H      0.161699   -2.206849   -0.815946
H     -1.044502   -0.999812   -1.493162
H     -0.194504   -1.424711    1.403664
H     -1.127330    0.646436    1.984627
H     -5.781378   -4.779345    0.886522
H     -2.517465    4.827381   -3.048342
H     -0.361099   -3.772774   -1.871146
H     -5.051145    3.561123    0.760612
H      6.871894   -0.449458    2.332035
H      3.934083    3.060834   -2.267376
H      7.859615    1.840766    0.144181
