67

C     -3.113027   -3.283377    0.274491
C     -1.357921   -3.350958    1.982528
C      2.257263    2.038917    1.607680
C      8.096905    2.493803   -3.133925
C     -8.120909    1.477252    0.785459
C     -4.165277    1.540328   -2.692681
C      6.440543   -1.579463   -0.988891
C      0.226944   -0.859023    0.460682
C      5.268970   -0.957796   -0.381563
C      7.273185   -0.911572   -1.704792
C     -4.578751   -0.433816    1.875116
C     -5.772606    0.142119    1.455930
C      3.871851    1.063843   -0.702719
C     -1.289287   -0.751917    0.154274
C      0.660537    0.495247    0.926776
C      2.631296    0.677551   -0.270204
C      6.097822    1.043375   -1.422338
C     -3.736198    0.018638   -0.355711
C     -1.794364   -0.616355    2.458670
C     -2.506936   -2.572990    1.433206
C      5.219044    0.398447   -0.702993
C     -3.534347   -0.484730    0.870206
C      7.346417    0.456468   -2.100392
C     -5.987434    0.658331    0.220495
C     -4.929229    0.573065   -0.638041
C     -2.206095   -1.084236    1.254992
N     -1.400959   -0.140607    3.658639
N      2.140946    0.600156    1.103944
O      8.152505    1.108319   -2.765010
O     -7.146087    1.283978   -0.256944
O     -5.279593    1.201852   -1.923254
H     -2.268694   -3.740493   -0.334722
H     -3.692124   -4.204489    0.618644
H     -3.667379   -2.680870   -0.447756
H     -0.918504   -2.841918    2.866767
H     -1.837408   -4.318488    2.360125
H     -0.640510   -3.677003    1.193498
H      1.347327    2.240682    2.137828
H      2.400653    2.708428    0.718750
H      3.073297    1.970826    2.296489
H      8.566321    2.607615   -4.212460
H      8.601973    3.187296   -2.474157
H      7.069583    2.831116   -3.321471
H     -8.452139    0.585692    1.268575
H     -8.798955    2.314058    0.602321
H     -7.401326    1.945237    1.636611
H     -4.150451    1.618973   -3.702644
H     -4.114536    2.759776   -2.392114
H     -3.154821    1.272389   -2.211165
H      6.542934   -2.646620   -0.802945
H      0.308192   -1.461258    1.441666
H      0.811824   -1.337948   -0.281967
H      4.592844   -1.438578    0.181077
H      8.193438   -1.487688   -2.120455
H     -4.415214   -0.796668    2.810149
H     -6.580778    0.228622    2.190965
H      3.781482    1.485876   -1.803870
H      4.120150    2.113523   -0.212931
H     -1.386152   -1.760346   -0.509718
H     -1.422850    0.025764   -0.565825
H      0.150893    0.970398    1.746344
H      0.461047    1.232625    0.041665
H      2.488358   -0.503045   -0.577085
H      1.796194    1.051890   -0.925547
H      6.138315    2.123527   -1.597267
H     -3.028373   -0.041150   -1.202747
H     -3.279813   -2.582601    2.305025
