26

C     -4.009047    0.141084    0.324580
C     -1.806389    0.798621   -0.503315
C      1.891481    1.309201   -0.517963
C     -2.529509   -0.108662    0.456143
C     -0.351453    0.539191   -0.386243
C      2.370154    0.033434   -0.192958
C      0.552248    1.573111   -0.616766
C      0.068486   -0.719078   -0.066467
C      1.443933   -0.962736    0.028011
C      3.796299   -0.195846   -0.100721
C     -0.876407   -1.828660    0.197931
Cl    -0.053243    3.176507   -1.025352
O      1.799407   -2.254237    0.353757
O      4.345902   -1.270403    0.176724
O      4.650135    0.884465   -0.344148
O     -0.442939   -2.945359    0.481054
O     -2.225388   -1.473469    0.092977
H     -4.168587    1.183400   -0.048751
H     -4.422986   -0.570683   -0.424102
H     -4.526411    0.030601    1.304500
H     -2.066308    1.846729   -0.264948
H     -2.162346    0.542619   -1.526271
H      2.626800    2.097040   -0.692420
H     -2.204436    0.103554    1.494063
H      2.674709   -2.667729    0.477251
H      5.625894    0.737306   -0.642284
