51

C      6.842546   -0.709939    0.688802
C      6.718512    1.278686   -0.720950
C     -5.709171    2.797023   -0.119371
C     -6.898304   -2.471160    1.211705
C      1.590295    1.569689    1.779904
C      2.965884    1.602088    1.829129
C      3.782957   -0.557975   -1.057060
C      5.092477   -0.550857   -1.042828
C     -3.658830    0.890821   -0.111373
C     -4.180338   -1.707192    0.532764
C     -0.794977   -2.110301   -0.735500
C      2.984600    0.174208   -0.080390
C      0.887507    0.872810    0.844917
C     -2.610801   -0.029434   -0.118524
C      3.686892    0.883607    0.871327
C     -2.870835   -1.338961    0.205623
C     -4.939840    0.494899    0.216170
C     -5.214158   -0.814185    0.542925
C     -0.462672   -0.722073   -1.153211
C     -1.239789    0.354176   -0.460938
C     -0.561779    0.828951    0.779762
C      1.603115    0.167160   -0.095739
C      5.848435    0.196684   -0.040082
O     -1.220384    1.194150    1.776318
O     -5.959426    1.463092    0.207871
O     -6.506097   -1.174853    0.865150
O     -1.824778   -2.225516    0.191762
O      0.925877   -0.546923   -1.053621
O      5.047099    0.877478    0.868934
H      7.056486   -0.300723    1.696652
H      6.380535   -1.712221    0.748449
H      7.773596   -0.776812    0.072504
H      6.066153    2.087618   -1.123784
H      7.341652    1.711300    0.082325
H      7.374157    0.835727   -1.483206
H     -6.549431    3.437846    0.189254
H     -4.785624    3.197504    0.353581
H     -5.534281    2.892702   -1.225161
H     -6.592538   -3.200956    0.431070
H     -6.534896   -2.780277    2.193314
H     -8.016638   -2.488514    1.207954
H      1.007012    2.126892    2.522579
H      3.505489    2.154138    2.569608
H      3.272687   -1.133659   -1.829226
H      5.664007   -1.114117   -1.794366
H     -3.387812    1.903654   -0.375426
H     -4.394997   -2.734323    0.789055
H     -1.074363   -2.762990   -1.615221
H      0.100880   -2.639958   -0.294994
H     -0.705523   -0.632907   -2.253819
H     -1.290568    1.243923   -1.135694
