26

C      4.045806   -0.053968    0.231760
C      1.805672    0.890836   -0.023977
C     -1.903786    1.366390    0.087984
C      2.555425   -0.349247    0.367051
C      0.347220    0.647875   -0.086132
C     -2.354441    0.095304   -0.243934
C     -0.560483    1.641608    0.166570
C     -0.107423   -0.609743   -0.414285
C     -1.464375   -0.917739   -0.501590
C     -3.784553   -0.106732   -0.304142
C      0.843588   -1.672403   -0.675207
Cl    -0.027113    3.266290    0.590594
O     -1.807989   -2.189703   -0.833162
O     -4.288078   -1.208461   -0.592430
O     -4.668652    0.936870   -0.038534
O      0.514982   -2.837682   -0.979160
O      2.203224   -1.372886   -0.580688
H      4.398806   -0.364047   -0.764239
H      4.187075    1.028947    0.382789
H      4.575382   -0.635296    1.014249
H      2.126473    1.160874   -1.054539
H      2.005186    1.740749    0.654068
H     -2.646264    2.154846    0.288358
H      2.304416   -0.691479    1.386119
H     -2.642124   -2.664243   -0.960743
H     -5.657975    0.743041    0.061106
