42

C      0.535668   -3.224259   -0.910304
C      3.492369    2.619496   -0.194189
C      2.499841    2.736028   -1.143847
C      3.411934    1.593127    0.720522
C      1.455821    1.834587   -1.162178
C      2.281987   -0.412727    1.674455
C      1.647714   -1.613950    0.999761
C     -2.499318   -1.585582   -0.948086
C     -1.677138   -2.586482   -0.170074
C     -3.507843    0.417412   -0.256814
C     -1.183240    1.772354    0.272279
C      2.345441    0.684589    0.689801
C     -2.300966   -0.198016   -0.455515
C      1.345666    0.789237   -0.254180
C     -1.128629    0.497159   -0.184835
C     -3.580552    1.719047    0.208992
C      0.252268   -1.311382    0.532603
C     -2.400641    2.389111    0.471293
C      0.210839   -0.099871   -0.375006
Cl    -5.094156    2.541093    0.476018
N     -0.305354   -2.400791   -0.129887
O     -2.463550    3.691907    0.937877
H      1.262114   -3.810883   -0.317687
H     -0.080321   -3.867604   -1.559101
H      1.132831   -2.576420   -1.596724
H      4.334754    3.305171   -0.139320
H      2.587283    3.550313   -1.849781
H      4.186039    1.487227    1.475557
H      0.676458    1.951121   -1.931834
H      1.744503   -0.101192    2.578557
H      3.317151   -0.710296    1.947881
H      2.289893   -1.866826    0.138332
H      1.587790   -2.431560    1.744562
H     -3.558696   -1.857107   -0.773698
H     -2.308874   -1.640920   -2.025561
H     -1.919713   -3.587811   -0.593797
H     -2.085761   -2.621979    0.881634
H     -4.465980   -0.064393   -0.447334
H     -0.249231    2.297490    0.484478
H     -0.338850   -1.054656    1.461380
H      0.228572   -0.509405   -1.431686
H     -1.678122    4.257644    1.155455
