52

C      3.128306    2.161991   -2.952852
C      2.525243   -2.400734    2.668796
C      5.223045    1.180234    1.159721
C      1.564902    0.441976   -1.364623
C      1.280901   -1.039051    0.425079
C     -1.202862    1.800671   -0.195818
C     -3.629839    1.082048    0.824390
C     -2.471486   -3.596807   -0.073904
C     -3.139811    4.650874    0.989693
C      0.695765   -0.388804   -0.642706
C     -1.601420    0.471373   -0.343735
C     -2.832313    0.151818    0.185517
C     -2.193740   -2.140322    0.193174
C     -1.990765    2.739479    0.440581
C     -3.218207    2.381398    0.957901
C      2.875831    0.618314   -1.070155
C      2.632768   -0.865250    0.739069
C     -0.713730   -0.507126   -1.044592
C     -1.307004   -1.849937   -1.030407
C     -3.397884   -1.245962    0.108132
C      3.431948   -0.036202   -0.008323
C     -0.426884   -3.005542   -0.973282
O     -4.097177   -1.455911   -1.054687
O      0.761720   -3.069923   -1.354662
O      3.662392    1.473317   -1.855924
O      3.211396   -1.521298    1.811818
O      4.781084    0.154075    0.283447
O     -1.146793   -4.048124   -0.411255
O     -1.852714    4.097093    0.725455
O     -3.802521    3.519697    1.544871
H      3.997622    2.516469   -3.578915
H      2.522749    1.520785   -3.624778
H      2.558812    3.059497   -2.678143
H      2.512658   -3.434108    2.245229
H      3.055737   -2.432702    3.652128
H      1.474966   -2.113950    2.852753
H      5.570998    0.719067    2.110184
H      6.060804    1.742204    0.736591
H      4.395362    1.869037    1.429209
H      1.143977    0.968661   -2.210259
H      0.672251   -1.695147    1.024720
H     -0.249107    2.066124   -0.600836
H     -4.609716    0.793758    1.236743
H     -3.077140   -3.736968   -0.997482
H     -2.867227   -4.133246    0.799107
H     -3.680885    4.899298    0.046766
H     -3.090639    5.498948    1.697033
H     -1.666118   -2.068073    1.137281
H     -0.749895   -0.161777   -2.128747
H     -1.985875   -2.004095   -1.913323
H     -4.022960   -1.426751    1.006590
H     -4.716526   -2.200400   -0.922571
