40

C      5.257644    0.215414   -0.225915
C      4.697425   -1.040201   -0.220192
C      4.414271    1.296305   -0.169372
C      2.798557   -2.529817   -0.156168
C      1.428631   -2.715178   -0.095633
C      2.200124    2.181831   -0.052415
C      0.824013    2.015957    0.008723
C     -0.744169   -1.768953    0.020387
C      3.330378   -1.256858   -0.160299
C      3.049518    1.104917   -0.109178
C      0.631957   -1.604578   -0.040780
C      0.257551    0.758718    0.014704
C     -1.617198   -0.701813    0.078088
C      2.494635   -0.152824   -0.103738
C      1.116600   -0.324279   -0.042604
C     -1.112305    0.591903    0.075538
C     -3.063580   -1.003394    0.140349
C     -2.000996    1.765586    0.135581
C     -3.910394    0.195163    0.443589
C     -3.396887    1.359107   -0.343694
O     -3.298703   -1.947404    1.143882
O     -2.094423    2.286738    1.417091
O     -5.218282   -0.057435    0.017401
O     -3.256498    0.950308   -1.673940
H      6.336630    0.357029   -0.273646
H      5.386224   -1.892075   -0.265882
H      4.846669    2.294323   -0.173317
H      3.446387   -3.394941   -0.200163
H      1.030215   -3.719958   -0.093351
H      2.652343    3.174690   -0.057359
H      0.226967    2.903765    0.050754
H     -1.146546   -2.793854    0.022522
H     -3.376004   -1.455074   -0.813271
H     -1.686983    2.581266   -0.575891
H     -3.935880    0.436156    1.525911
H     -4.077755    2.231482   -0.295978
H     -3.152756   -2.849234    0.797915
H     -1.816593    1.624353    2.087568
H     -5.198664    0.035682   -0.985938
H     -2.322121    0.847175   -1.934225
