53

C      0.838560    0.468795    4.830648
C     -3.511464    4.067044   -3.259064
C      5.576994    2.568100    1.249299
C     -3.677773   -0.653592   -0.666687
C     -2.230586   -1.456127   -2.348980
C     -4.199166   -1.918148   -0.528819
C     -2.749870   -2.715301   -2.210830
C      4.290067    2.465966    0.763463
C      5.528929    0.180234    1.732983
C      3.265405   -1.014512    1.076667
C      0.079175   -0.600113   -0.206170
C      4.245729    0.088183    1.246113
C      6.183671    1.405888    1.733436
C     -2.663772   -0.358969   -1.587218
C     -3.746222   -2.961338   -1.293045
C      3.633639    1.251551    0.760513
C      2.290941    0.903704    0.311683
C      1.892246    0.214093    2.625211
C     -0.863090    1.361155   -1.393183
C     -2.994888    1.893043   -2.399202
C      1.936591   -0.258943    1.207399
C     -3.634872   -5.077377   -0.210902
Cl     7.814023    1.473748    2.362032
F     -4.289253   -6.314211   -0.214550
F     -3.661899   -4.524703    1.057524
F     -2.324228   -5.253195   -0.620551
N      1.455709    1.332258   -0.560130
N      0.182623    0.717546   -0.728027
N     -2.134150    0.920680   -1.766509
O      2.877266    0.842102    3.046974
O     -0.549797    2.612278   -1.709448
O     -4.140003    1.524958   -2.738815
O      0.830900   -0.005414    3.478668
O     -2.588744    3.198026   -2.633641
O      0.837674   -0.922963    0.885654
O     -4.279187   -4.263947   -1.154057
H      0.565602   -0.341847    5.523734
H      1.913615    0.709744    5.054623
H      0.266273    1.389477    4.966183
H     -3.079916    5.073597   -3.441665
H     -4.471527    4.103162   -2.713898
H     -3.765372    3.654104   -4.276401
H      6.120203    3.506509    1.265647
H     -4.043650    0.178763   -0.054329
H     -1.443158   -1.209352   -3.060204
H     -4.977055   -2.049961    0.205208
H     -2.358531   -3.502078   -2.837918
H      3.777687    3.358259    0.368905
H      6.041422   -0.693976    2.118177
H      3.364128   -1.811564    1.812774
H      3.263106   -1.399974    0.020627
H     -0.980667   -0.850172    0.108535
H      0.286666   -1.305190   -1.063519
