37

C     -5.245580    2.058856    0.729674
C     -2.889449    0.506497    1.335673
C     -1.767958   -0.235211    1.618300
C     -2.988370   -0.425792   -0.834466
C      2.525161   -0.131029   -1.030207
C      2.371053    0.621563    1.665872
C      0.136305   -2.088374   -1.630101
C      4.833206    2.503596   -0.159692
C     -3.516140    0.426254    0.114156
C     -1.255013   -1.090541    0.637942
C      1.718153   -0.840365   -0.163554
C     -1.868623   -1.184291   -0.591233
C      1.649181   -0.464128    1.154920
C      3.243676    0.936145   -0.560326
C      3.165598    1.305651    0.772180
C     -0.057799   -1.914212    0.883614
C      0.823274   -2.023564   -0.317294
O      1.674407   -3.149671   -0.189998
O     -4.641951    1.173546   -0.163485
O     -1.295108   -2.056143   -1.507145
O      4.119434    1.815808   -1.187604
O      3.994977    2.422353    0.986795
O      0.778229   -1.302594    1.879446
H     -4.610449    2.953852    0.825135
H     -6.267841    2.263312    0.412399
H     -5.310260    1.621581    1.764768
H     -3.306585    1.175232    2.075151
H     -1.252852   -0.189883    2.578041
H     -3.459353   -0.512869   -1.806275
H      2.543804   -0.469566   -2.061728
H      2.295212    0.897750    2.724421
H      0.442451   -1.217882   -2.250749
H      0.421592   -2.999358   -2.219624
H      4.970186    3.574407   -0.391516
H      5.785791    1.955299   -0.023064
H     -0.293523   -2.926716    1.242634
H      2.535166   -2.989513   -0.639859
