52

C     -3.376000    1.773821    0.973470
C     -3.355832    0.713555   -1.210879
C      4.939908    0.197098    0.427241
C     -0.853121   -0.942681   -1.604705
C     -2.672874   -1.913002    0.549660
C      1.630817   -1.659595    0.034155
C     -0.723068    1.888550   -0.074769
C     -3.411615   -0.650925    0.836635
C     -1.183502   -1.800884    0.646172
C      2.985554   -1.329019    0.678942
C      0.493621    1.795247   -0.909644
C      3.365245   -0.248910   -1.443462
C      2.158578    0.176026   -1.786615
C      2.607189    1.120384    0.278660
C     -1.357159    0.603786    0.326183
C      0.784345   -0.451546    0.184104
C     -2.849319    0.569401    0.174486
C      3.535864   -0.076571    0.027956
C     -0.658770   -0.626317   -0.185690
C      1.422641    0.678986   -0.596638
H     -4.368937    1.525169    1.349715
H     -3.415862    2.641157    0.290302
H     -2.655627    2.010589    1.806435
H     -4.425230    1.078541   -1.135209
H     -2.840213    1.468333   -1.814360
H     -3.465324   -0.272757   -1.750712
H      5.119726    1.300977    0.345227
H      5.178602   -0.124273    1.449168
H      5.634764   -0.278073   -0.300439
H     -1.595356   -1.774705   -1.762312
H     -1.128909   -0.144879   -2.279016
H      0.110851   -1.377327   -2.004897
H     -2.995749   -2.373843   -0.407008
H     -2.982721   -2.657575    1.340485
H      1.823324   -1.915356   -1.037560
H      1.227032   -2.541353    0.579927
H     -0.500665    2.566768    0.802281
H     -1.495238    2.471074   -0.657230
H     -4.460802   -0.767478    0.518421
H     -3.363865   -0.460546    1.948751
H     -0.826240   -1.771594    1.675227
H     -0.760345   -2.718267    0.141647
H      2.762476   -1.173861    1.755008
H      3.709107   -2.128311    0.511548
H      0.252386    1.797273   -2.014846
H      1.083847    2.753788   -0.785173
H      4.113179   -0.652990   -2.092090
H      1.782302    0.151571   -2.795309
H      3.091294    2.012926   -0.108967
H      2.312461    1.164734    1.337557
H     -1.206485    0.530270    1.451725
H      0.803714   -0.157387    1.271397
