40

C      5.165898    1.039177   -0.219620
C      4.895890   -0.308426   -0.051457
C      4.152366    1.970756   -0.307726
C      3.308104   -2.068974    0.196413
C      1.987358   -2.442125    0.271424
C      1.799874    2.519654   -0.319478
C      0.485421    2.115101   -0.240893
C     -0.359011   -1.941493    0.264285
C      3.562648   -0.702653    0.027166
C      2.833515    1.579761   -0.229833
C      0.971136   -1.506354    0.182950
C      0.225320    0.781771   -0.074216
C     -1.373835   -1.004590    0.174729
C      2.565273    0.230757   -0.061494
C      1.250593   -0.172920    0.017154
C     -1.103698    0.317497    0.011147
C     -2.741888   -1.525546    0.258221
C     -2.138811    1.318324   -0.077462
C     -3.774941   -0.592315   -0.299666
C     -3.540326    0.830087    0.123510
O     -2.863832   -2.758416   -0.375280
O     -2.090459    1.792591   -1.420435
O     -5.020297   -0.983963    0.186671
O     -3.984741    1.052703    1.438489
H      6.185750    1.377437   -0.284153
H      5.653239   -1.057672    0.020749
H      4.360093    3.031904   -0.440040
H      4.123943   -2.775426    0.262118
H      1.714109   -3.500275    0.404215
H      2.023156    3.558502   -0.449613
H     -0.327352    2.804168   -0.309420
H     -0.560932   -2.992143    0.394269
H     -2.988480   -1.695541    1.335334
H     -1.996503    2.231707    0.529496
H     -3.803492   -0.711844   -1.399049
H     -4.210450    1.464603   -0.502123
H     -2.541784   -3.459088    0.239552
H     -2.611451    1.201032   -2.017723
H     -5.030235   -1.047147    1.186950
H     -4.201172    2.029380    1.554844
