40

C     -3.522504   -0.831024   -0.316323
C     -1.749573    3.030202    0.451636
C      2.540750    0.557454    1.291890
C      2.779739    0.284227   -1.021886
C      3.785518    1.172556    1.343633
C      4.033434    0.901197   -0.983934
C     -1.184080   -2.218695   -1.269018
C     -1.223957   -2.495758    0.213325
C     -0.014308   -0.100544   -1.278918
C      2.019467    0.103124    0.100401
C      4.539013    1.349920    0.217574
C     -1.396763   -0.702527   -1.312307
C      0.701086   -0.549008   -0.013146
C     -1.462903   -1.184736    0.878711
C     -0.196806   -0.390263    1.159781
C     -0.621242    1.026853    1.334005
F      5.768832    1.954261    0.248568
N     -2.169541   -0.399959   -0.147575
O     -0.383734    1.707290    2.364534
O     -1.329943    1.703085    0.333615
H     -4.185366    0.060387   -0.432131
H     -3.671959   -1.438550   -1.230155
H     -3.828473   -1.429951    0.575954
H     -1.631015    3.358166    1.498100
H     -1.120123    3.650754   -0.229320
H     -2.815157    3.094303    0.138127
H      2.008430    0.446460    2.217269
H      2.477273   -0.030846   -2.014568
H      4.177351    1.522623    2.288682
H      4.620570    1.035807   -1.881922
H     -0.201830   -2.498713   -1.680799
H     -1.965722   -2.738935   -1.837504
H     -2.140151   -3.139283    0.374532
H     -0.357893   -3.018348    0.613696
H      0.022182    0.978787   -1.386284
H      0.542942   -0.630075   -2.111594
H     -1.923238   -0.397518   -2.227452
H      0.928240   -1.647265   -0.135569
H     -2.072644   -1.328930    1.770999
H      0.224097   -0.766527    2.095374
