65

C      6.912988   -0.109323    0.208433
C      5.534823    1.871398    0.853689
C     -0.240427    0.965107    0.698963
C     -2.049608   -1.872686   -1.128113
C     -7.328564    1.566311    0.084011
C     -6.898537    2.535966   -0.794421
C     -6.417116    0.584236    0.485423
C     -5.585038    2.523992   -1.261682
C     -1.293927   -2.141771    1.670377
C      1.302773    0.969063   -1.608543
C     -0.086853    0.386959   -1.653470
C      0.166966   -1.860158    1.426956
C     -3.623993   -1.454309    1.016424
C      2.666580   -1.135804    1.027926
C     -2.171052   -1.054204    1.207754
C     -5.117870    0.589496    0.010570
C     -4.061535   -0.244770    0.251401
C      1.825215   -0.781282    0.056143
C     -4.687440    1.555671   -0.865475
C      4.059362   -0.648239    0.966553
C      2.332440    0.073899   -1.018924
C     -2.990888    0.252106   -0.507163
C      4.464281   -0.000473   -0.297693
C      5.761640    0.767222   -0.153186
C     -0.504721   -0.137204   -0.297361
C     -1.870601   -0.671373   -0.241089
C      0.445706   -1.270816    0.075318
N     -3.384824    1.337056   -1.173688
O      4.770766   -0.819861    1.971412
O      6.034375    1.376788   -1.376694
O      0.402145   -2.279160   -0.922034
O      3.429757    0.866256   -0.638457
H      7.850485    0.345867   -0.214892
H      6.809088   -1.095201   -0.273948
H      7.091656   -0.183478    1.300810
H      6.502414    2.337145    1.137025
H      4.923072    2.655032    0.336166
H      4.949981    1.530324    1.721614
H      0.864193    1.192750    0.613313
H     -0.790634    1.888873    0.494118
H     -0.333482    0.621883    1.764899
H     -3.142191   -1.916713   -1.414520
H     -1.532863   -1.713017   -2.089918
H     -1.846067   -2.836453   -0.664800
H     -8.345475    1.556201    0.460166
H     -7.605661    3.292200   -1.101334
H     -6.736701   -0.173496    1.165878
H     -5.321397    3.315678   -1.947241
H     -1.629353   -3.136372    1.322469
H     -1.396812   -2.199444    2.797097
H      1.326550    2.007797   -1.187743
H      1.589462    1.129814   -2.691669
H     -0.743256    1.232362   -1.908401
H     -0.092064   -0.368738   -2.452952
H      0.703552   -2.821908    1.500659
H      0.532092   -1.167475    2.209102
H     -3.727320   -2.375677    0.456942
H     -4.170968   -1.540448    1.962669
H      2.392330   -1.767156    1.862106
H     -2.201219   -0.159326    1.854214
H      2.763756   -0.586374   -1.834423
H      4.579401   -0.731753   -1.113956
H     -2.862826    1.951679   -1.822285
H      6.610407    0.821246   -1.954220
H      1.193027   -2.845917   -0.737573
