63

C      5.779992    2.565991   -1.164344
C     -2.453766   -1.438632    4.489608
C     -4.093638    2.853050   -0.795270
C     -3.453808   -1.922974    3.674321
C     -1.371241   -0.780079    3.944215
C     -3.085717    2.829174    0.121725
C     -4.503941    1.687258   -1.391494
C      3.667925    0.648982    2.912105
C      4.892522    1.204756    2.619829
C     -3.312781   -1.715628    2.331412
C     -1.275469   -0.597721    2.592771
C     -2.468061    1.616990    0.458878
C     -3.879877    0.527479   -1.037190
C      2.713306    0.543054    1.892417
C      5.112125    1.632286    1.321583
C      0.282332   -0.386514   -2.961491
C      0.283896   -2.782246   -2.349238
C     -1.235002   -0.523032   -2.913136
C     -1.241205   -2.783083   -2.477475
C      1.993203    0.721752   -0.513495
C     -2.230254   -1.050473    1.717877
C     -2.864064    0.440284   -0.123396
C      0.791925   -1.395755   -2.016127
C      2.916887    0.959669    0.606903
C      4.176225    1.530885    0.316638
C     -2.193360   -0.833241    0.265969
C      0.310898   -1.017797   -0.585683
C     -1.124929   -1.332078   -0.595008
N      0.673245    0.332778   -0.287370
N     -1.653469   -1.491380   -1.973885
O      4.509713    1.999872   -0.939636
H      6.592729    1.832977   -1.139848
H      6.006204    3.354263   -0.403602
H      5.839021    3.032592   -2.183537
H     -2.526495   -1.583216    5.553665
H     -4.567930    3.819893   -1.046140
H     -4.318276   -2.441614    4.088388
H     -0.571208   -0.391697    4.614166
H     -2.762875    3.756184    0.589720
H     -5.301183    1.666512   -2.125404
H      3.444501    0.294764    3.918584
H      5.613005    1.284610    3.408325
H     -4.114958   -2.104987    1.676261
H     -0.437162   -0.068267    2.168312
H     -1.697738    1.677855    1.171819
H     -4.199521   -0.399886   -1.509324
H      1.796597    0.072625    2.223146
H      6.113447    2.078911    1.137590
H      0.704748   -0.577599   -3.964741
H      0.590046    0.644813   -2.706678
H      0.691193   -3.051673   -3.348780
H      0.610484   -3.553867   -1.640292
H     -1.515549   -0.937433   -3.920565
H     -1.646204    0.480116   -2.859177
H     -1.572145   -2.890672   -3.514166
H     -1.680303   -3.619632   -1.887475
H      1.934822    1.702863   -1.135687
H      2.576363    0.083511   -1.245819
H      1.895928   -1.486222   -2.005147
H     -3.041625   -1.586378   -0.074798
H      0.954785   -1.686566    0.033711
H     -1.099503   -2.469461   -0.274125
H      0.025190    1.023054   -0.740396
