44

C     -1.320434   -2.411855    0.670112
C     -2.463499    0.241551   -1.499350
C     -3.076620    1.369172    1.488618
C      2.200741    1.761242    1.001625
C      3.264258   -1.850556   -1.016650
C      2.968775    0.771630    1.530465
C      3.466153   -1.571814    0.460603
C      0.818075    2.112616   -1.137418
C     -0.897957   -1.095467   -0.017860
C      1.700301    1.328665   -0.236598
C      2.094791   -0.913968   -1.422493
C      2.176961    0.106597   -0.412739
C     -0.336450   -1.523209   -1.315327
C     -1.438872    2.336628   -0.059527
C     -2.012346   -0.115618   -0.113464
C     -1.800064    1.122338    0.710181
N      2.940371   -0.255265    0.628740
O     -1.146544   -1.696766   -2.273419
O     -2.426545    3.040974   -0.408348
O     -3.133473   -0.774425    0.463687
O     -0.830404    0.826946    1.677674
O     -0.187465    2.706188   -0.385683
O      0.980797   -1.721925   -1.471398
H     -1.412470   -2.253980    1.770302
H     -2.222492   -2.820331    0.214339
H     -0.489203   -3.120972    0.478799
H     -1.686914    0.546031   -2.193678
H     -3.117940   -0.564403   -1.950034
H     -3.211808    1.086733   -1.368478
H     -3.063635    0.874770    2.465059
H     -3.981823    1.098194    0.893190
H     -3.168981    2.474105    1.678618
H      2.030637    2.712242    1.491497
H      2.989870   -2.910729   -1.118397
H      4.150952   -1.656789   -1.619565
H      3.506203    0.785944    2.486804
H      4.522053   -1.693958    0.699709
H      2.886785   -2.270502    1.094895
H      0.482835    1.520468   -2.011857
H      1.505290    2.885297   -1.603246
H     -0.088859   -0.722703    0.676588
H      2.323086   -0.545852   -2.460370
H     -2.982362   -0.908012    1.445680
H     -0.511775    1.690768    2.068713
