49

C      4.612832   -2.175500   -0.255276
C     -5.703474    1.766221   -1.276753
C      4.000753   -1.355029    0.859168
C     -4.290078    1.267077   -1.030890
C      4.402304    3.087897   -1.467793
C      3.064253    2.819313   -1.322887
C      4.873199    1.028003   -0.389002
C     -1.815696    0.374885   -0.025555
C      0.889097   -1.722485    1.073463
C     -4.096556   -2.297521    1.378858
C      5.334965    2.167792   -0.988074
C      3.030264   -0.366088    0.348985
C      3.524976    0.772475   -0.251051
C      1.681428   -0.612618    0.484338
C     -2.870358   -1.521378    0.970790
C     -2.963294   -0.301686    0.330465
C      2.585258    1.673023   -0.720482
C     -0.567856   -0.151793    0.250245
C      0.788107    0.329969   -0.007269
C     -1.603045   -2.008652    1.225728
C     -5.143484   -0.963428   -0.402018
C     -4.326940    0.216524    0.056977
N      1.257622    1.452053   -0.598936
N     -0.485846   -1.322592    0.864740
O      6.688730    2.369947   -1.097957
O     -1.515523   -3.129915    1.814609
O     -5.816870   -0.933197   -1.465733
O     -4.935995    0.740442    1.182105
O     -5.110676   -2.085756    0.414846
H      4.460092   -1.681029   -1.251400
H      4.145045   -3.182475   -0.356404
H      5.684733   -2.343668   -0.037274
H     -6.033272    1.474354   -2.309773
H     -5.772626    2.877731   -1.214724
H     -6.435570    1.340357   -0.564790
H      3.479152   -2.058002    1.540438
H      4.783622   -0.845205    1.468340
H     -3.889263    0.863316   -1.960283
H     -3.727727    2.130078   -0.648574
H      4.783257    3.974738   -1.933415
H      2.363192    3.564609   -1.710712
H      5.602090    0.295739   -0.008604
H     -1.871563    1.329843   -0.527478
H      1.106823   -2.696179    0.590929
H      1.040855   -1.808879    2.171103
H     -3.827843   -3.385934    1.366786
H     -4.419696   -2.009937    2.404648
H      7.339660    1.689792   -0.742980
H     -4.299059    1.352768    1.658845
