23

C     -1.810133   -0.191622    0.702988
C     -3.262543    0.168234    0.684289
C      2.631378    0.466828    0.138529
C     -1.158203    0.353579   -0.526099
C      1.154333    0.585263    0.468480
C      0.300775    0.060375   -0.650043
O     -3.683404    0.805233   -0.253871
O      2.979254   -0.858992   -0.001586
O     -1.849230   -0.023722   -1.682465
O      0.858882   -0.070429    1.645614
O      0.470858   -1.311953   -0.849658
H     -1.383233    0.336532    1.601360
H     -1.721746   -1.294971    0.796696
H     -3.892787   -0.153194    1.512361
H      2.895814    1.092300   -0.721768
H      3.198405    0.873369    1.015029
H     -1.258916    1.463707   -0.479696
H      0.888244    1.669388    0.577204
H      0.656989    0.555221   -1.609185
H      3.835616   -0.998017   -0.449811
H     -1.872166   -1.014155   -1.762676
H      1.528331   -0.740789    1.914451
H      0.493478   -1.772186    0.029623
