32

C      3.305759    1.063893   -0.074789
C     -0.219816    1.893035   -0.469366
C      2.641657   -0.219943   -0.542433
C     -2.298645    1.678267    0.204354
C      2.202907   -1.004078    0.642382
C      0.769900   -1.372060    0.336376
C     -3.606915    1.812979    0.642414
C     -1.760202    0.424329   -0.038210
C      0.432651   -0.470158   -0.807219
C     -3.841115   -0.507190    0.599027
Cl    -4.210022    3.431249    0.925272
N     -4.545186   -1.577331    0.775421
N     -1.326782    2.568623   -0.069564
N     -4.361012    0.715606    0.833861
N     -2.570386   -0.640262    0.173419
N     -0.492462    0.578212   -0.447872
O      3.759615    1.734569   -1.215890
O      3.012505   -2.158259    0.734394
O      0.762935   -2.703217   -0.060231
O      1.583410   -0.011278   -1.376179
H      2.639243    1.716391    0.491642
H      4.157977    0.807424    0.571257
H      0.702814    2.406693   -0.746658
H      3.437032   -0.765079   -1.128980
H      2.312122   -0.454127    1.600238
H      0.107730   -1.218568    1.221213
H     -0.089207   -1.106748   -1.581157
H     -4.146509   -2.521778    0.594989
H     -5.332881    0.808606    1.158927
H      4.526647    1.209760   -1.571541
H      2.476391   -2.932133    1.019776
H     -0.030155   -3.187425    0.219882
