81

C     -4.614957   -2.902629    0.050868
C     -5.422680   -1.856172    2.184076
C      3.365112   -0.867470   -1.733352
C      5.815881    1.097299   -0.532856
C      0.846030    1.427824   -1.826672
C     -0.699464    1.129579    1.556510
C     -0.777177   -1.347295   -0.874900
C      0.677942   -1.464867   -1.120657
C      3.050399    1.850341    0.102764
C      4.503797   -2.034404    0.973377
C      3.160850   -1.910752    0.425586
C      1.581553    1.809034    0.453005
C     -5.547152   -0.607893    0.078001
C     -4.965456    0.777511    0.166553
C     -3.380038   -0.979342    1.095115
C     -1.436652    2.053615   -0.551576
C      5.373649    1.130091    1.823227
C     -1.416389   -0.318860   -0.354804
C     -2.884677   -0.421716   -0.204603
C      3.559403    0.463088    0.407160
C      1.364929   -0.475593   -0.256478
C      5.525268   -1.011866    0.639492
C     -2.870789    2.109586   -0.124201
C     -3.875007    0.953203   -1.972660
C     -4.755754   -1.643274    0.844646
C      2.856210   -0.611808   -0.349780
C      5.025294    0.387070    0.541472
C      0.770596    0.870879   -0.421777
C     -0.664188    0.917082    0.061127
C     -3.599639    0.876768   -0.489140
O      6.510572    1.054997    2.263852
O      6.323288   -1.396527   -0.469312
O     -3.095855    2.583575    1.153381
O     -3.416384    0.083974   -2.731397
O     -4.628447    1.970827   -2.512670
H     -5.409781   -3.632447    0.356988
H     -4.779662   -2.693898   -1.028996
H     -3.640406   -3.412819    0.218506
H     -6.438775   -2.259255    2.004962
H     -5.563399   -0.844359    2.629295
H     -4.882606   -2.554628    2.827677
H      3.602494   -1.956899   -1.937322
H      2.649886   -0.638670   -2.550836
H      4.306825   -0.337635   -1.976086
H      5.231758    1.724774   -1.200038
H      6.609120    1.782516   -0.105017
H      6.427321    0.390993   -1.157997
H      0.407081    0.784177   -2.586698
H      1.906980    1.582975   -2.149592
H      0.447282    2.479421   -1.837492
H     -1.668930    1.001919    2.026847
H     -0.257696    2.142991    1.770264
H     -0.051278    0.417384    2.110811
H     -1.418213   -2.217627   -1.155686
H      0.974450   -2.517802   -0.923014
H      0.804799   -1.299808   -2.214834
H      3.509082    2.518422    0.892906
H      3.303532    2.263675   -0.842067
H      4.455833   -2.161340    2.097656
H      4.931265   -3.029963    0.641141
H      2.900127   -2.745240   -0.291007
H      2.389293   -2.034878    1.242586
H      1.611552    1.377963    1.501524
H      1.142899    2.829982    0.469515
H     -5.603969   -0.871371   -0.995637
H     -6.575803   -0.559773    0.465229
H     -5.664856    1.426050   -0.441940
H     -4.995647    1.216182    1.176061
H     -3.688315   -0.189676    1.843447
H     -2.677010   -1.696721    1.524680
H     -1.496269    1.942727   -1.678965
H     -1.006184    3.048642   -0.288564
H      4.673086    1.719477    2.364755
H     -3.313767   -1.127346   -0.990151
H      3.161791    0.319008    1.468231
H      1.104499   -0.765411    0.814069
H      6.292126   -1.039680    1.476755
H     -3.307100    2.937167   -0.776834
H      5.952983   -2.254787   -0.809970
H     -3.835218    3.216681    1.234762
H     -4.781253    2.023032   -3.513300
