78

C     -7.872790    1.137844    0.297118
C     -3.977025   -1.293474   -2.214491
C      9.449032   -0.328077    0.415250
C      2.920140   -1.543937    0.518445
C     -0.968252   -1.671821   -0.602505
C      2.570401    0.750218    2.240573
C      1.139447    0.807862    1.872460
C     -6.465171   -0.642433    1.341327
C      5.101104    1.064783   -0.894973
C      4.162871   -0.126011   -1.066509
C     -5.025594   -0.696858    1.046111
C      4.917221    0.428427    1.494194
C     -1.679520    0.883156    0.923417
C      1.363706   -0.200518   -1.807544
C     -6.607622   -0.524438   -1.081164
C     -7.361377   -0.285528    0.208281
C     -3.478648   -0.757496   -0.914055
C      8.246839    0.535148    0.514625
C      3.525110    0.782707    1.097035
C      5.851627    0.956329    0.397788
C      0.738981    0.171079    0.601250
C      1.771005    0.375589   -0.514393
C     -0.509391    0.710608    0.065055
C     -2.697043    1.303099   -0.152210
C     -0.081739   -0.041448   -2.135363
C     -2.400368    0.284016   -1.236236
C      3.076681   -0.147060   -0.034115
C     -1.028843   -0.236602   -1.019449
C     -4.555104    0.038056   -0.169958
O      8.398399    1.731057    0.818567
O     -0.511741    0.230109   -3.229425
O     -5.531954    0.339654   -1.083850
O      6.962491    0.072407    0.284901
O     -3.975870    1.218399    0.228114
H     -7.269749    1.848012   -0.299986
H     -8.908314    1.205461   -0.091955
H     -7.925179    1.464459    1.368510
H     -3.116202   -1.293973   -2.945665
H     -4.296463   -2.354841   -2.151198
H     -4.745285   -0.650913   -2.690095
H     10.260695    0.259909   -0.081384
H      9.751096   -0.595590    1.452948
H      9.235316   -1.261311   -0.130849
H      2.490783   -1.576707    1.527417
H      2.383762   -2.192354   -0.204008
H      3.943264   -2.013028    0.613356
H      0.064673   -2.073160   -0.792210
H     -1.601889   -2.240533   -1.344668
H     -1.225069   -1.873625    0.432799
H      2.794468    1.655741    2.878806
H      2.843132   -0.114438    2.904886
H      0.737287    1.863634    1.870163
H      0.554722    0.310467    2.702488
H     -6.685350    0.089247    2.175796
H     -6.832962   -1.626112    1.760087
H      5.865746    0.950283   -1.717082
H      4.607128    2.023538   -1.062024
H      3.812857   -0.176201   -2.102031
H      4.804288   -1.028449   -0.907042
H     -4.725278   -1.778714    0.909516
H     -4.456782   -0.374211    1.952910
H      5.066984   -0.655421    1.634684
H      5.156205    0.995839    2.423987
H     -1.621042    1.753737    1.638433
H     -2.021799   -0.011020    1.440529
H      1.913906    0.353474   -2.623965
H      1.668643   -1.265110   -1.939111
H     -6.349930   -1.579568   -1.130234
H     -7.238254   -0.263570   -1.964063
H     -8.263571   -0.937787    0.165440
H     -3.134880   -1.520119   -0.219012
H      3.533096    1.813474    0.683318
H      6.189343    1.972942    0.675202
H      0.703834   -0.943796    0.776973
H      1.879528    1.492935   -0.624347
H     -0.299293    1.683805   -0.460255
H     -2.438843    2.335684   -0.462947
H     -2.571622    0.694508   -2.252390
