29

C      2.178136   -0.774690   -0.703184
C      1.694145    1.662825   -0.845973
C     -1.989261   -1.625022   -0.564266
C     -0.428740    1.257484    1.153279
C     -0.063576   -1.048001    0.948671
C     -0.130401   -0.036209   -1.161348
C      0.695089    0.289947    1.003037
C     -1.693664    0.566078    0.638277
C      1.164707    0.337841   -0.436557
C     -1.059931   -0.590347   -0.132247
O     -2.387440   -0.016930    1.705811
H      2.560423   -1.208278    0.236001
H      3.051201   -0.377405   -1.280050
H      1.720357   -1.589249   -1.318328
H      0.963596    2.209326   -1.449031
H      2.593380    1.480368   -1.503803
H      2.081658    2.268382    0.024844
H     -2.238061   -2.321070    0.257306
H     -2.948779   -1.158000   -0.909545
H     -1.588170   -2.164840   -1.442373
H     -0.559903    1.678467    2.149368
H     -0.286754    2.134515    0.455385
H     -0.562004   -1.274730    1.889016
H      0.599017   -1.837829    0.561569
H     -0.507476    0.905634   -1.628644
H      0.100058   -0.747718   -1.952818
H      1.467815    0.314634    1.739658
H     -2.305329    1.211040    0.015478
H     -2.120092    0.453775    2.550466
