30

C     -0.222310    0.746822    1.669357
C     -0.431320   -1.696148    1.198918
C      1.459374   -1.685010   -0.552520
C     -0.916063   -0.224597   -1.680597
C      0.488110    0.320611   -1.539080
C     -1.469012   -0.045913   -0.284648
C     -2.023967    1.317292   -0.140465
C      2.033288    0.459955    0.398546
C     -0.267297   -0.299823    0.604804
C      0.954825   -0.289628   -0.240367
O     -1.986726    2.143721   -1.088462
O     -2.610291    1.753671    1.038064
O      3.107286   -0.139277    0.667155
O      1.978164    1.808022    0.744803
H      0.682956    0.694328    2.303239
H     -0.283963    1.745984    1.232272
H     -1.078620    0.635330    2.398893
H     -0.417548   -2.403206    0.357466
H      0.338550   -1.920419    1.943910
H     -1.464084   -1.726096    1.623564
H      2.472526   -1.534703   -1.026885
H      1.613780   -2.221769    0.381844
H      0.827340   -2.236896   -1.248631
H     -1.476062    0.341978   -2.445065
H     -0.898413   -1.312897   -1.919167
H      0.430948    1.425922   -1.498566
H      1.089315    0.033078   -2.400685
H     -2.281949   -0.772898   -0.126726
H     -2.470858    2.747547    1.271193
H      2.822018    2.335022    0.734659
