29

C      2.147954    0.349733    1.088614
C      2.154594   -0.231801   -1.270879
C     -2.001636   -1.722062   -0.316800
C     -0.518852    1.499573    0.820817
C     -0.786565    0.312938   -1.162077
C      0.379516   -1.134555    0.249539
C      0.292110    1.123019   -0.416977
C     -1.489827    0.335846    1.039384
C      1.275687    0.058627   -0.092082
C     -1.039382   -0.663709    0.000426
O     -2.754797    0.788077    0.644209
H      2.747815    1.275869    0.890786
H      1.642054    0.351180    2.052718
H      2.916226   -0.471554    1.132374
H      1.642703   -0.233485   -2.230591
H      2.710599   -1.191513   -1.171560
H      2.929874    0.563958   -1.310025
H     -2.823127   -1.402144   -0.968163
H     -2.478070   -2.081270    0.633830
H     -1.451988   -2.610655   -0.719671
H     -1.067353    2.450573    0.646959
H      0.095621    1.636143    1.708492
H     -0.389686   -0.189251   -2.036471
H     -1.672658    0.928173   -1.365356
H      0.594416   -1.928924   -0.473492
H      0.488554   -1.432354    1.307398
H      0.647586    1.967324   -0.981559
H     -1.467672   -0.040196    2.055705
H     -2.723697    1.692442    0.244453
