44

C      3.143706   -0.465080    1.471998
C     -3.469478   -1.179885   -0.614353
C      4.302999    0.121943    1.982380
C     -4.863136   -1.320131   -0.566553
C      3.915937    0.051351   -0.716584
C     -3.697948    0.954138    0.356188
C      0.457433    0.580403    0.849376
C     -0.013807   -1.095354   -1.730203
C      7.216801    1.278447    0.184607
C     -7.328559    1.225029    0.282258
C      2.949115   -0.500056    0.110568
C     -2.857413   -0.035490   -0.151949
C      0.597805   -0.886515    0.553604
C     -0.615588   -1.116827   -0.337863
C      5.265591    0.670799    1.165558
C     -5.666254   -0.322133   -0.057570
C      5.062734    0.631141   -0.197210
C     -5.069146    0.828854    0.408818
C      1.727081   -1.106623   -0.447500
C     -1.385887    0.151334   -0.178658
O      1.206369   -0.407152   -1.542753
O     -0.944655    0.737984    1.006417
O      6.490801    1.306727    1.391419
O     -7.053457   -0.173687    0.118416
O      6.175768    1.247355   -0.774037
O     -6.107589    1.650187    0.857666
H      2.414871   -0.892393    2.159409
H     -2.914225   -1.990119   -1.023779
H      4.465436    0.154995    3.047286
H     -5.350271   -2.209004   -0.924644
H      3.753127    0.017373   -1.766779
H     -3.215424    1.850989    0.718200
H      0.833992    1.186881    0.000364
H      0.949649    0.920772    1.773460
H     -0.700452   -0.531796   -2.394232
H      0.147267   -2.103335   -2.134064
H      7.814122    0.354908    0.065331
H      7.828099    2.202106    0.103333
H     -7.408797    1.651339   -0.748593
H     -8.202861    1.410335    0.903966
H      0.635949   -1.542574    1.419083
H     -1.142203   -2.036080   -0.088116
H      1.838002   -2.160788   -0.707051
H     -1.185507    0.889629   -1.002883
