37

C     -3.473644    0.266709    0.426361
C     -3.549183   -2.151973    0.321245
C      0.540406    3.461775   -1.015573
C      3.793171   -0.455660    0.322059
C      4.972445   -0.956313    0.866968
C     -1.541251   -1.075665   -0.524017
C     -0.833171    1.366874   -1.095000
C      1.379354    1.235296   -0.383569
C      3.411576   -2.337782    1.385011
C     -2.601302   -0.954773    0.507600
C      0.169004    2.170792   -0.327080
C      2.787825   -1.321123    0.642309
C     -0.545615   -0.009554   -0.552106
C      0.740476   -0.094051   -0.193081
C      1.361864   -1.273334    0.364369
O      0.647760   -2.296189    0.632633
O      4.673603   -2.052181    1.469825
H     -3.818640    0.480811   -0.597825
H     -4.430742    0.064030    1.018076
H     -3.034402    1.130013    0.965161
H     -3.646868   -2.294838   -0.776140
H     -3.079221   -3.066508    0.730668
H     -4.525246   -1.964573    0.813594
H      1.631596    3.604008   -0.856448
H      0.393123    3.415158   -2.110387
H      0.041807    4.336504   -0.548848
H      3.768571    0.436169   -0.253597
H      5.946404   -0.509984    0.795980
H     -2.109040   -1.051761   -1.543344
H     -1.143730   -2.089069   -0.520702
H     -0.485121    1.357861   -2.159878
H     -1.854958    1.691034   -0.980745
H      1.846121    1.327020   -1.362354
H      2.040462    1.494104    0.485411
H      2.867020   -3.180108    1.783695
H     -2.209213   -1.066231    1.544503
H     -0.131244    2.363515    0.725227
