54

C      0.025166    0.421283    1.970613
C     -5.890199    2.457723    0.302187
C      6.787283    1.151980   -0.478846
C     -5.147478    2.259625   -0.822293
C     -5.855310    1.545685    1.339465
C      6.806881   -0.197877   -0.717388
C      5.648711    1.689826    0.085844
C     -0.097462   -1.378293   -1.839632
C     -4.348259    1.127864   -0.923046
C     -5.050806    0.431566    1.207971
C      5.750012   -0.994827   -0.414373
C      4.539004    0.911555    0.413975
C     -0.898626   -0.129759   -1.576543
C      0.922168   -1.615036   -0.785926
C     -2.072375   -0.886282    0.516538
C      2.213622   -0.786926    1.099243
C     -4.289304    0.205411    0.083124
C      4.612219   -0.439128    0.153121
C     -1.160371    0.100333   -0.107168
C      1.206651   -0.401516    0.036752
C     -3.452264   -0.977869   -0.008099
C      3.467980   -1.274715    0.483060
N      0.073216    0.272969    0.558635
O     -3.496533   -1.556503   -1.301781
O      3.575387   -2.519499    0.212157
Cl     0.691820    0.000000    0.000000
H     -0.953961    0.920444    2.218171
H      0.112939   -0.563935    2.466666
H      0.801175    1.148727    2.310029
H     -6.529771    3.322464    0.432380
H      7.629240    1.761764   -0.724313
H     -5.179300    2.972234   -1.624276
H     -6.423834    1.654046    2.252640
H      7.707072   -0.628678   -1.164834
H      5.591066    2.765311    0.293433
H     -0.773544   -2.250996   -1.973989
H      0.407191   -1.238083   -2.827814
H     -3.790551    1.033381   -1.844740
H     -5.015158   -0.289907    2.013830
H      5.768661   -2.071614   -0.606182
H      3.673393    1.373352    0.850644
H     -1.807066   -0.142257   -2.174767
H     -0.261413    0.739405   -1.909753
H      0.684435   -2.479198   -0.121049
H      1.902235   -1.905928   -1.270614
H     -1.621276   -1.917066    0.421858
H     -2.076533   -0.707042    1.619658
H      2.438152    0.069062    1.747395
H      1.837465   -1.624562    1.729876
H     -1.683628    1.111036   -0.074489
H      1.743930    0.325628   -0.641277
H     -3.976071   -1.776464    0.617785
H     -4.074161   -1.018713   -1.898870
H     -0.691820    0.000000    0.000000
