72

C      5.781762   -2.532944   -0.835415
C      1.278151   -0.655160   -3.304121
C     -3.257885    1.837687    1.423564
C      4.491578    1.431490    0.117526
C      1.218651   -0.119000    2.252891
C      4.900245    0.152128   -0.198020
C      0.532762   -1.125978    1.602873
C      2.888682    3.335262   -0.092341
C      1.351079    2.158010    3.212550
C      2.682174    1.181275   -1.353053
C     -0.657388    1.262961    2.128417
C     -5.287040   -0.649850   -1.667609
C      1.462198    4.727026    1.290076
C      3.356209    1.989721   -0.456954
C      0.646935    1.081616    2.523869
C      1.846829    3.316483    1.013496
C      2.401976    2.796367    2.291609
C      4.226544   -0.648253   -1.088608
C     -0.811492   -0.932420    1.197523
C      3.080641   -0.092839   -1.675412
C     -1.385804    0.289894    1.479067
C     -4.362660   -1.747793   -1.277202
C     -4.161013   -2.843664   -2.282371
C     -3.206733   -3.844354   -1.695342
C     -2.923282   -3.619099   -0.239856
C      2.850121    4.023237    2.980222
C     -2.732553   -2.197253    0.152950
O     -5.444296    0.175822   -0.536313
O     -5.364072   -3.443551   -2.651904
O     -1.996691   -3.751357   -2.400539
O     -3.893330   -4.227219    0.529564
O      3.784232    4.075830    3.828119
O      4.611947   -1.938693   -1.425077
O      2.427602   -0.923653   -2.569923
O     -2.725408    0.540696    1.098729
O      2.055531    5.055309    2.507011
O     -1.449897   -1.928843    0.556173
O     -3.071936   -1.311491   -0.908211
H      5.492587   -2.753638    0.231573
H      6.016173   -3.502376   -1.296129
H      6.633898   -1.836842   -0.806892
H      1.470625    0.241212   -3.937836
H      0.350125   -0.611974   -2.730031
H      1.157939   -1.496020   -4.045615
H     -3.151530    2.035504    2.523443
H     -4.305546    1.966100    1.139825
H     -2.617223    2.636124    0.939633
H      5.098402    2.001014    0.823297
H      2.260059   -0.356407    2.533399
H      5.798189   -0.290265    0.262088
H      0.946966   -2.087964    1.363075
H      2.411431    3.876463   -0.945363
H      3.700040    4.000743    0.261384
H      0.693789    2.952039    3.618724
H      1.917120    1.751731    4.068292
H      1.787422    1.596708   -1.817950
H     -1.166453    2.201712    2.323270
H     -4.932698   -0.024941   -2.507485
H     -6.285890   -1.104522   -1.866021
H      0.357067    4.889338    1.286864
H      1.835616    5.376894    0.445317
H      0.952653    2.704038    0.673180
H      3.249979    2.067680    2.170130
H     -4.844646   -2.274296   -0.377707
H     -3.722606   -2.419222   -3.202696
H     -3.604923   -4.854343   -1.882984
H     -1.951659   -4.160208   -0.001878
H     -3.428643   -1.851465    0.959293
H     -5.425586   -0.381319    0.283616
H     -5.963098   -2.815403   -3.132675
H     -2.107937   -3.155996   -3.205270
H     -3.766013   -5.217501    0.538845
