54

C      0.239349    1.534302   -1.100850
C     -6.680926    1.984309    0.394146
C      6.473636   -1.634721   -1.236878
C      4.480838    3.012977    1.002063
C     -4.801212   -2.132524   -0.885206
C     -2.458808    2.093840    0.288062
C     -3.844110    2.049352    0.320201
C      1.633677   -2.665847   -0.620240
C      0.255952   -2.117027   -1.033274
C      3.790644   -1.496498   -0.611707
C      2.672730    0.749800    0.509148
C     -1.659448   -1.555140    0.301308
C     -0.232596    1.013460    0.236887
C      2.457239   -1.439523   -0.300712
C     -1.701207    0.916004    0.277964
C      1.838256   -0.343284    0.262526
C     -2.383333   -0.262321    0.301478
C     -4.507032    0.850544    0.342716
C      4.599568   -0.412351   -0.363151
C      4.017616    0.722919    0.206979
C      0.399860   -0.307853    0.591514
C     -3.762750   -0.297587    0.333110
N     -0.265740   -1.439392    0.092798
O     -5.912560    0.775705    0.375047
O      5.949955   -0.452368   -0.671312
O      4.866709    1.792476    0.441089
O     -4.443658   -1.529580    0.356467
H     -0.579663    1.365587   -1.837163
H      1.169664    1.037870   -1.423325
H      0.401120    2.643671   -1.083347
H     -7.725875    1.788450    0.153659
H     -6.256443    2.603242   -0.449112
H     -6.515019    2.505894    1.346533
H      7.559628   -1.555439   -1.442506
H      6.299968   -2.486872   -0.521559
H      5.899107   -1.809634   -2.180562
H      3.707327    2.927483    1.784611
H      4.234376    3.752095    0.212499
H      5.384813    3.435745    1.525972
H     -4.617883   -1.455326   -1.733339
H     -5.892761   -2.372140   -0.822324
H     -4.281818   -3.084150   -1.059861
H     -1.935385    3.037592    0.270161
H     -4.406170    2.966145    0.327621
H      2.086684   -3.266232   -1.418606
H      1.504977   -3.223471    0.326302
H      0.329465   -1.526085   -1.952103
H     -0.365065   -3.017277   -1.217866
H      4.254116   -2.386847   -1.060179
H      2.232894    1.641422    0.953355
H     -1.848759   -2.088131    1.271080
H     -2.075648   -2.234278   -0.487517
H      0.085945    1.752403    0.999898
H      0.327757   -0.361389    1.724368
