66

C      7.789045   -0.337235    0.038221
C      7.404054   -0.622255   -1.397276
C      6.129689    0.147387   -1.766813
C      5.059541   -0.340588   -0.812731
C     -4.655580   -0.167772   -1.705172
C     -5.235330   -1.353529   -1.046912
C      0.381791   -0.734108    3.096343
C     -1.434961    1.379809   -1.271393
C     -0.811772   -1.480622    2.628297
C      1.074950   -0.107335    2.152135
C      3.732477    0.343387   -1.064772
C     -4.965528    1.168550   -1.151782
C     -2.761505    1.987665   -1.693819
C     -5.842307   -1.202695    0.291416
C     -1.282862    1.305532    0.237176
C     -2.926989   -1.136741    1.416343
C     -1.619338   -0.491438    1.818778
C      0.475801   -0.301622    0.767404
C      2.749059   -0.222890   -0.056357
C     -4.091137   -0.288192    1.755578
C      1.377694    0.378721   -0.199283
N     -3.786069    1.888432   -0.689419
N     -5.219352   -0.392633    1.248605
N     -0.884420    0.064073    0.751038
O      2.676013   -1.618650   -0.206998
O     -3.836431    0.698735    2.740706
O      1.493146    1.755351   -0.029950
H      8.883083   -0.221713    0.067144
H      7.476152   -1.150242    0.694426
H      7.327666    0.616166    0.367907
H      8.218269   -0.402535   -2.116689
H      7.172225   -1.704264   -1.465231
H      5.847441   -0.214775   -2.783171
H      6.320474    1.217618   -1.708895
H      4.921291   -1.424102   -1.028576
H      5.326248   -0.173501    0.248534
H     -3.542948   -0.309070   -1.713859
H     -4.904513   -0.162972   -2.813821
H     -6.073785   -1.730710   -1.721846
H     -4.545384   -2.245124   -1.033650
H      0.668121   -0.699484    4.118400
H     -1.268140    0.395168   -1.764378
H     -0.645764    2.053771   -1.717359
H     -0.545928   -2.325410    1.947148
H     -1.414582   -1.852377    3.492722
H      1.951227    0.479600    2.347108
H      3.382279   -0.033887   -2.070852
H      3.784241    1.430639   -1.035996
H     -5.720587    1.230614   -0.370238
H     -5.365521    1.827301   -1.983709
H     -3.059035    1.454498   -2.639989
H     -2.639733    3.063409   -2.000720
H     -6.028889   -2.266430    0.665071
H     -6.919664   -0.841333    0.170090
H     -0.703262    2.199143    0.539893
H     -2.326751    1.513986    0.627029
H     -2.845711   -1.315643    0.329258
H     -2.998043   -2.149248    1.880123
H     -1.891048    0.333499    2.533451
H      0.568320   -1.392055    0.570710
H      3.172866   -0.027351    0.936302
H      1.051493    0.163412   -1.268860
H     -4.122406    2.850517   -0.425355
H      2.843659   -1.895322   -1.144490
H     -4.568119    1.368581    2.990987
H      2.225078    2.020287    0.567849
