46

C     -2.731880   -2.855487    1.863420
C      4.881010   -2.079505    1.276571
C      3.925700    3.076021   -0.537211
C     -4.077006   -0.723345   -0.242195
C     -3.525196   -2.136254   -0.307507
C     -0.063667   -1.984661    0.283176
C     -3.132366    1.427663   -1.053662
C      2.310800   -1.316697    0.596086
C      1.847362    1.236665   -0.297235
C     -0.836605    4.147244   -1.738923
C     -2.924993    0.202095   -0.482681
C      0.999350   -0.956245    0.257894
C      0.801641    0.327369   -0.182027
C     -1.380210   -1.392893    0.586878
C      3.334432   -0.414519    0.481256
C      3.141736    0.875791    0.035710
C     -2.127542    2.322401   -1.310550
C     -1.622711   -0.150473   -0.145966
C     -0.583416    0.763719   -0.411663
C     -0.825900    1.983756   -0.983054
N     -2.442457   -2.338077    0.567755
O      4.649801   -0.764589    0.816607
O      4.206554    1.768799   -0.071417
O     -2.140830    3.614843   -1.882152
O     -0.023379    3.043736   -1.341389
H     -1.836188   -3.420092    2.236544
H     -3.599828   -3.552997    1.812903
H     -2.958193   -2.018952    2.578825
H      4.501063   -2.202700    2.314945
H      4.415335   -2.838970    0.602887
H      5.994072   -2.254245    1.250031
H      3.135556    3.539555    0.106172
H      3.429270    2.943286   -1.542150
H      4.811936    3.696075   -0.644827
H     -4.612076   -0.519730    0.681873
H     -4.758723   -0.608669   -1.109734
H     -3.277626   -2.435818   -1.335573
H     -4.366775   -2.799048    0.027067
H     -0.159833   -2.470817   -0.739667
H      0.242390   -2.795272    0.983958
H     -4.172449    1.679578   -1.309025
H      2.459497   -2.327287    0.944814
H      1.738562    2.250898   -0.634767
H     -0.539568    4.549832   -2.722378
H     -0.796998    4.954706   -0.968280
H     -1.309651   -1.046691    1.688659
