81

C      6.150365    1.418050   -2.484142
C      7.198443    0.212965   -0.525094
C      4.659164   -0.707963    1.718042
C     -5.972594    1.474894   -0.014604
C     -6.009334   -0.921562    0.363791
C     -2.963311    2.165237   -1.077383
C      0.569112   -1.504283   -0.000284
C      0.510859    1.332735    2.499852
C      5.006667   -1.861895   -0.866955
C      5.178876   -0.647350   -1.700211
C      3.631156   -1.860672   -0.174147
C     -2.417028   -0.042165    1.998288
C     -3.678071    0.624045    1.486351
C      1.841580   -1.303121    2.416427
C     -0.342058    0.873933   -1.100044
C     -4.121796   -0.686610   -2.441162
C     -2.835758   -0.022578   -2.118129
C      0.325237   -1.067378    2.556661
C      1.010513    0.883460   -0.454890
C      6.134977    0.248482   -1.542082
C      3.554091   -0.665409    0.677653
C      2.300737   -0.342613    1.344764
C     -1.466027    0.569781   -0.138453
C     -1.256478    0.242564    1.114327
C     -3.847018    0.108514    0.069116
C     -5.351879   -0.083042   -1.863170
C     -5.265119    0.195694   -0.395747
C     -2.808019    0.692845   -0.777105
C      1.060043   -0.186825    0.553939
C      0.097800    0.143305    1.708225
O     -5.816034    1.031352   -2.601775
H      6.620772    2.306001   -2.035126
H      6.714677    1.148787   -3.421404
H      5.139778    1.699719   -2.819658
H      8.144533    0.528134   -1.036663
H      7.292476   -0.744483   -0.016313
H      6.968590    1.033209    0.210978
H      4.216848   -0.701075    2.759989
H      5.248101   -1.644893    1.691536
H      5.297145    0.209227    1.708604
H     -6.315951    2.040558   -0.931014
H     -5.400612    2.109293    0.684259
H     -6.948336    1.281626    0.524859
H     -6.890661   -1.256112   -0.216189
H     -6.305267   -0.515194    1.355145
H     -5.370217   -1.785871    0.541399
H     -3.988530    2.508355   -1.204990
H     -2.436551    2.349213   -2.038068
H     -2.394779    2.791437   -0.327681
H      0.551107   -1.504260   -1.122807
H     -0.511809   -1.696402    0.271302
H      1.106798   -2.378734    0.418636
H      1.097369    1.054281    3.425433
H     -0.415272    1.822419    2.922916
H      1.052476    2.112425    1.974905
H      5.824525   -2.094491   -0.197114
H      4.952028   -2.714514   -1.612989
H      4.423224   -0.532427   -2.499248
H      3.582196   -2.812169    0.372381
H      2.918896   -1.834003   -1.049298
H     -2.258478    0.405396    3.024674
H     -2.561303   -1.120967    2.171705
H     -3.554946    1.708744    1.441591
H     -4.507570    0.338768    2.136799
H      2.074045   -2.346492    2.214175
H      2.308970   -1.041109    3.397555
H     -0.320165    0.147830   -1.933945
H     -0.517982    1.891769   -1.532116
H     -4.117417   -1.778167   -2.171318
H     -4.240003   -0.683163   -3.554888
H     -2.524704    0.640052   -2.941106
H     -2.062142   -0.849612   -2.084363
H      0.074050   -0.839950    3.626015
H     -0.250883   -1.947578    2.278188
H      1.177469    1.885610   -0.041724
H      1.797058    0.727143   -1.222395
H      3.812691    0.221467    0.024713
H      2.458652    0.638291    1.891183
H     -3.613404   -0.998889    0.137844
H     -6.174111   -0.843919   -2.036127
H     -6.252478    0.750331   -3.436796
