24

C      3.278698   -1.117454    1.563006
C     -2.249034   -0.511028   -0.766617
C     -3.358209    0.160546   -0.091179
C      0.103297   -0.138981   -1.397006
C      1.278539   -0.257645   -0.818392
C      0.478586    0.766433    1.200947
C      1.471303    0.217855    0.541352
C     -0.851953    0.927889    0.620128
C     -1.055221    0.460116   -0.737220
Br     2.745253   -1.045020   -1.729958
Br     0.802615    1.382773    3.016266
N     -4.234840    0.695869    0.422504
O     -1.709014    0.156211    1.479510
O     -1.486724    1.505781   -1.609134
O      2.710100    0.088556    1.137674
H      2.668066   -1.642809    2.333700
H      3.385001   -1.800237    0.712166
H      4.274696   -0.883164    1.996627
H     -1.973116   -1.385690   -0.155282
H     -2.505416   -0.759934   -1.801655
H     -0.020534   -0.505943   -2.426192
H     -1.227453    1.996668    0.780664
H     -1.279013   -0.695329    1.703188
H     -1.245626    2.384538   -1.235055
