88

C      3.373297    3.339906    2.842766
C     -2.150797   -3.155595    1.238120
C      6.340810   -4.115046   -2.394762
C     -0.307612    3.768469   -2.476684
C     -7.473694    1.773278    2.104140
C     -3.682124    3.996483    0.768805
C     -0.495561   -0.696624   -2.652818
C     -0.544590   -3.054581   -2.362062
C      5.118396   -1.691626    0.914835
C      0.933713   -0.764880   -2.727247
C      0.889846   -3.076607   -2.441424
C      5.575253   -2.494081   -0.104638
C      3.662623    2.822499    0.230126
C     -5.254035   -2.184368   -0.230801
C      4.620697    2.253887    1.187890
C     -4.275587   -3.223421    0.173017
C     -2.703337   -1.741416   -2.073190
C      3.718725   -0.241197    2.146334
C      3.205870   -0.933559   -0.315788
C      1.391702    2.780995   -0.558616
C     -5.667673   -0.007358    0.855823
C      0.544136    0.964753    1.419938
C     -1.206607   -1.854584   -2.460281
C      3.943765   -0.899315    0.851961
C      2.296530    2.275432    0.431461
C     -4.738853   -0.849029    0.249654
C      1.578700   -1.945960   -2.608822
C      1.871133    1.382843    1.401248
C      2.970923    0.995073    2.349957
C     -2.613870   -1.596165   -0.550721
C      4.809591   -2.505668   -1.255389
C      0.126799    2.343616   -0.488646
C      3.656153   -1.733438   -1.326594
C     -0.377074    1.429935    0.480604
C     -5.226759    1.219599    1.283693
C     -3.421165   -0.531426    0.055076
C     -3.910284    1.556170    1.095487
C     -2.941096    0.730313    0.484769
N      3.954761    2.087363    2.427573
N     -2.914373   -2.873267    0.064043
O      5.246455   -3.303298   -2.294681
O     -0.717466    2.880974   -1.499405
O     -6.123859    2.083899    1.893767
O     -3.594383    2.846263    1.580356
O      3.031202   -1.936803   -2.625931
O     -1.690422    1.156725    0.343620
H      3.781539    4.181314    2.256153
H      3.680483    3.571118    3.910988
H      2.261991    3.286805    2.838928
H     -1.451727   -3.988206    1.154632
H     -1.563129   -2.250440    1.535826
H     -2.877464   -3.399971    2.044844
H      6.893168   -4.285198   -1.468584
H      5.997486   -5.114746   -2.775099
H      7.029299   -3.649384   -3.170243
H      0.392796    3.353474   -3.231121
H     -1.248606    4.151099   -2.981408
H      0.144561    4.661523   -2.005798
H     -7.531367    0.740086    2.512377
H     -8.049865    1.772008    1.156914
H     -7.931830    2.446108    2.874426
H     -3.332345    4.849753    1.392304
H     -4.717696    4.169317    0.469816
H     -2.954831    3.940639   -0.073658
H     -0.757651    0.384565   -2.801875
H     -0.873656   -4.120606   -2.249359
H      5.744647   -1.702774    1.830546
H      1.342003    0.270810   -2.919616
H      1.246411   -4.145554   -2.360188
H      6.482638   -3.078274   -0.006716
H      3.634929    3.952757    0.247487
H      3.952535    2.513038   -0.827902
H     -5.441470   -2.098222   -1.323306
H     -6.257123   -2.370296    0.211296
H      5.493487    2.932206    1.378631
H      5.004157    1.278090    0.753277
H     -4.555765   -4.171038   -0.340251
H     -4.474209   -3.447610    1.260490
H     -3.261546   -0.942435   -2.562905
H     -3.330967   -2.592632   -2.295643
H      4.757910   -0.044315    2.588820
H      3.325318   -0.970302    2.924587
H      2.279866   -0.287224   -0.408806
H      1.764418    3.480666   -1.303901
H     -6.697422   -0.296378    0.988956
H      0.137805    0.198084    2.173128
H      2.640270    0.999491    3.450012
H     -1.508905   -1.456510   -0.274622
