88

C      2.254240    4.306018    0.130245
C     -4.951221   -0.132998   -1.489294
C      4.554234   -3.212254    3.656021
C     -2.160289    2.387338   -3.730564
C     -3.558244   -1.314200    4.989194
C     -1.409650    2.033664    2.926505
C      0.006796   -2.570294   -2.266491
C     -0.603024   -3.349856   -0.135989
C      4.795554    0.315019    1.656134
C      1.380343   -2.589977   -1.866799
C      0.784718   -3.360405    0.241542
C      4.718034   -0.866336    2.340882
C      2.570313    3.717247   -2.958563
C     -4.770524   -2.731047    0.346903
C      3.269993    4.616084   -1.980687
C     -5.136645   -2.489146   -1.062793
C     -2.425774   -2.844540   -1.727490
C      4.523745    1.920791   -0.093543
C      3.807480   -0.563267   -0.341953
C      0.371697    2.648217   -2.730052
C     -3.695170   -1.684921    2.240453
C      1.249836    1.295058   -0.362356
C     -0.973179   -2.948771   -1.393198
C      4.351377    0.502558    0.321890
C      1.631287    2.780447   -2.234069
C     -3.704338   -1.813442    0.854613
C      1.738389   -2.979255   -0.621470
C      2.097001    2.111142   -1.048938
C      3.501161    2.539111   -0.912965
C     -2.993104   -1.458642   -1.408260
C      4.161050   -1.913121    1.648019
C     -0.461315    1.817959   -2.018999
C      3.710846   -1.763439    0.335158
C     -0.073775    1.133524   -0.851611
C     -2.744549   -0.818084    2.729622
C     -2.832403   -1.130740    0.029797
C     -1.869396   -0.129266    1.904339
C     -1.852511   -0.233854    0.523258
N      3.403970    3.996664   -0.674294
N     -4.394280   -1.440087   -1.707667
O      4.079154   -3.136142    2.343787
O     -1.744277    1.733385   -2.592243
O     -2.661608   -0.626062    4.130455
O     -0.996497    0.693809    2.650710
O      3.138954   -2.975310   -0.185187
O     -1.073002    0.378019   -0.329768
H      1.380069    4.624359   -0.481903
H      1.941169    3.417064    0.732505
H      2.484610    5.160157    0.809939
H     -4.110284    0.587599   -1.422713
H     -5.550019   -0.088256   -0.556581
H     -5.547101    0.191669   -2.377272
H      3.989795   -2.462008    4.267339
H      5.634410   -2.894354    3.735068
H      4.439975   -4.245344    4.062034
H     -3.217052    2.054330   -3.932469
H     -2.124815    3.490380   -3.635346
H     -1.575286    2.026643   -4.617838
H     -3.292838   -1.081017    6.027720
H     -4.610889   -0.995210    4.811803
H     -3.511712   -2.397064    4.750762
H     -1.279606    2.702915    2.074293
H     -2.495581    2.070978    3.208095
H     -0.840350    2.435011    3.775039
H     -0.010148   -2.197669   -3.335313
H     -1.166004   -3.702588    0.773874
H      5.247821    1.152280    2.218599
H      2.055239   -2.268869   -2.723247
H      0.884046   -3.738660    1.307563
H      5.071492   -0.972531    3.361176
H      3.236388    3.185146   -3.633848
H      1.926353    4.357956   -3.597756
H     -5.680337   -2.530489    1.002468
H     -4.482602   -3.761606    0.583265
H      4.256965    4.882789   -2.396888
H      2.702362    5.555019   -1.838254
H     -5.092240   -3.403712   -1.675958
H     -6.222039   -2.169231   -1.136028
H     -2.666864   -2.969378   -2.828739
H     -3.138288   -3.540243   -1.297845
H      5.536348    2.108773   -0.522119
H      4.585092    2.600349    0.849995
H      3.517997   -0.514364   -1.449572
H      0.030236    3.162712   -3.634206
H     -4.375916   -2.217910    2.890910
H      1.530036    0.754431    0.592576
H      4.011267    2.525052   -1.959017
H     -2.487093   -0.745705   -2.056394
