29

C      0.036011   -1.548131   -0.686081
C     -3.111851    0.008153   -1.347408
C      4.533942    0.186126   -0.110940
C     -1.652748    1.445781    0.950550
C     -0.179989   -0.117448   -0.306668
C     -2.614030   -0.606668   -0.086747
C      3.175576    0.691473    0.268013
C      0.860053    0.222293    0.764807
C     -0.990231   -0.725875    1.764799
C     -1.437997    0.013712    0.558277
O     -3.188490   -1.575152    0.347200
O      2.958567    1.915208    0.456697
O     -1.688865   -1.437662    2.534352
O      2.142065   -0.228390    0.410100
O      0.374983   -0.472151    1.877463
H      0.648610   -1.667083   -1.597486
H      0.576716   -2.121669    0.119289
H     -0.932471   -2.112273   -0.817872
H     -4.221390    0.132987   -1.326981
H     -2.643411    0.992212   -1.548196
H     -2.888811   -0.628231   -2.235500
H      5.124428    0.023509    0.813340
H      5.089889    0.971815   -0.684797
H      4.466878   -0.769722   -0.662490
H     -1.080585    1.705111    1.888741
H     -2.721032    1.621569    1.209187
H     -1.284457    2.172327    0.190245
H     -0.169315    0.579682   -1.140221
H      0.817956    1.328497    0.898835
