53

C      4.918926    0.183094   -0.531675
C     -0.727900   -0.317059    1.879762
C     -3.458038    0.097391   -1.848097
C     -2.518975   -2.267301    0.092445
C      1.699342   -1.505089    0.474140
C     -1.038065    1.756658   -0.265923
C     -1.070887   -2.029132    0.193959
C     -3.411966   -1.098824    0.282942
C      3.010626   -1.425056   -0.300001
C      0.399924    1.889415   -0.722867
C      1.989881    1.338970    1.106953
C      2.553516    0.829099   -1.071285
C     -1.466024    0.310256   -0.461502
C      0.778208   -0.497097   -0.115241
C      3.157253    0.444315    1.212157
C     -3.540607    1.376490    0.195063
C      3.477039    0.011303   -0.177799
C     -0.654534   -0.596948    0.424113
C     -2.932678    0.155986   -0.402359
C      1.321584    0.889475   -0.143572
O      3.785993    0.082908    2.178141
O     -4.291360    2.167539   -0.473978
O     -3.348419    1.759812    1.517276
H      5.171995    1.253700   -0.384943
H      5.059044   -0.154692   -1.566760
H      5.518948   -0.386683    0.186079
H      0.211366   -0.733835    2.354963
H     -0.899465    0.721616    2.166855
H     -1.537127   -0.914346    2.396399
H     -4.422018   -0.430907   -1.837735
H     -2.702401   -0.467713   -2.416875
H     -3.631276    1.113333   -2.242996
H     -2.788042   -2.763253   -0.886482
H     -2.807457   -3.039850    0.863408
H      1.949611   -1.382836    1.522209
H      1.308360   -2.519141    0.314937
H     -1.653231    2.360838   -0.969367
H     -1.191173    2.140134    0.737449
H     -0.598635   -2.621800    1.031704
H     -0.566456   -2.413894   -0.727634
H     -3.694304   -0.908707    1.360830
H     -4.408238   -1.362951   -0.184960
H      3.750140   -2.069488    0.198747
H      2.852650   -1.722063   -1.356988
H      0.451261    1.874267   -1.840282
H      0.737730    2.904438   -0.422014
H      1.383197    1.423288    1.990423
H      2.403345    2.369232    0.896607
H      2.307130    0.289569   -2.003922
H      2.900771    1.852062   -1.210893
H     -1.096025    0.072229   -1.507990
H      0.655902   -0.792314   -1.204783
H     -3.298443    2.753563    1.701364
