88

C      6.079237   -1.019027    2.919952
C     -2.776521    1.191363    2.341405
C     -0.888013    6.880068   -1.818366
C      2.440615   -3.054598   -2.744161
C     -5.009504   -5.590368    0.962207
C     -1.009600   -4.937422   -1.109657
C      3.807727    0.923452   -1.854707
C      3.780838    2.501993   -0.082578
C     -2.879084    3.309664   -1.384317
C      2.730711    1.630661   -2.449503
C      2.699843    3.168079   -0.732364
C     -2.225183    4.509536   -1.523967
C      2.753004    0.511550    2.564562
C     -5.365975   -0.509048    0.654146
C      3.924267   -0.180826    3.197215
C     -4.901865    0.711829    1.341117
C      5.404460    0.624757    0.068030
C     -3.256189    0.974839   -1.306409
C     -0.966346    1.990227   -2.051415
C      1.052591   -0.504877    1.114783
C     -4.515169   -2.827197    0.670270
C      2.969260   -1.549491   -0.533890
C      4.319322    1.378872   -0.659220
C     -2.281711    2.054943   -1.636711
C      2.438749   -0.309642    1.336173
C     -4.231386   -1.477812    0.517840
C      2.166389    2.745788   -1.902692
C      3.427757   -0.815301    0.535624
C      4.806107   -0.508192    0.944483
C     -2.835894    0.459819    0.091170
C     -0.919331    4.415987   -1.931976
C      1.609139   -1.764436   -0.785078
C     -0.305973    3.187590   -2.185566
C      0.619531   -1.235425    0.052187
C     -3.494604   -3.718068    0.522441
C     -2.993304   -0.997997    0.230733
C     -2.225810   -3.245605    0.228385
C     -1.900368   -1.910848    0.069525
N      5.024039   -0.233220    2.322807
N     -3.559520    1.116098    1.142610
O     -0.278559    5.661548   -2.067213
O      1.403901   -2.555600   -1.952100
O     -3.737294   -5.091208    0.668016
O     -1.282081   -4.283272    0.101670
O      1.049813    3.393744   -2.572024
O     -0.698221   -1.462534   -0.211248
H      6.245637   -1.959095    2.317734
H      7.069381   -0.497921    2.921352
H      5.818636   -1.369253    3.943479
H     -1.715142    0.928184    2.200907
H     -3.235217    0.536959    3.114811
H     -2.826925    2.262080    2.702939
H     -0.234483    7.680931   -2.227430
H     -1.014322    7.089579   -0.735581
H     -1.858386    7.011466   -2.384894
H      3.094286   -3.796293   -2.239109
H      1.918861   -3.624322   -3.576952
H      2.979140   -2.252057   -3.273476
H     -4.881261   -6.662256    1.259003
H     -5.528114   -5.044472    1.758633
H     -5.684407   -5.597800    0.057798
H      0.077536   -4.880850   -1.351023
H     -1.577697   -4.485611   -1.967350
H     -1.248607   -6.028738   -1.001518
H      4.091931    0.048208   -2.513625
H      4.018328    3.054855    0.877194
H     -3.932411    3.391097   -1.052444
H      2.454268    1.121773   -3.416824
H      2.417281    4.072099   -0.116838
H     -2.717134    5.450281   -1.322924
H      2.858608    1.567427    2.384233
H      1.902261    0.383598    3.312011
H     -5.747840   -0.351695   -0.393173
H     -6.209671   -1.025861    1.191435
H      4.203408    0.413575    4.102898
H      3.614487   -1.198339    3.483655
H     -5.016832    0.520304    2.454687
H     -5.642072    1.544403    1.153445
H      6.063446    1.153682    0.759172
H      6.227107    0.205834   -0.602276
H     -4.296531    1.386691   -1.088377
H     -3.492068    0.200843   -2.008475
H     -0.461747    1.005945   -2.325079
H      0.436341    0.013492    1.905690
H     -5.514030   -3.159833    0.899062
H      3.555228   -2.059187   -1.349913
H      5.569955   -1.340044    0.762883
H     -1.751022    0.729930    0.282075
