23

C     -0.756681    0.235885    0.293042
C     -1.890381   -0.723464   -0.094974
C      0.446076   -0.619762    0.502350
C     -3.174325    0.031645   -0.335531
C      1.698917    0.080280    0.895912
C      2.121134    1.064838   -0.122423
N      2.744179   -0.957651    0.928470
O     -2.962654    0.940248   -1.372910
O      1.415291    2.079301   -0.338090
O      3.281551    0.914000   -0.861570
H     -0.658637    1.041702   -0.431852
H     -1.024464    0.679237    1.292054
H     -1.590625   -1.180009   -1.050323
H     -1.970388   -1.449365    0.722462
H      0.166690   -1.401245    1.250033
H      0.633237   -1.165747   -0.456967
H     -3.579612    0.506847    0.566255
H     -3.911994   -0.702895   -0.708484
H      1.648236    0.554902    1.897410
H      3.675592   -0.526780    0.923565
H      2.603330   -1.511988    0.044367
H     -2.563289    0.442420   -2.129390
H      3.648817    1.667600   -1.413406
