55

C     -4.058913    2.267343   -0.912836
C      7.330901    0.010139    0.434703
C     -1.468913    0.071840    4.407717
C     -4.050101    0.850330   -1.382010
C      4.697562    0.632601   -0.339753
C      3.441101    0.995173   -0.781989
C      0.424609    1.486375   -1.423510
C     -0.423268    0.715536   -2.401476
C     -3.376158   -1.485106   -1.014453
C      3.816973   -0.850362    1.282630
C     -1.466540   -1.884055    0.545167
C     -1.095418   -1.539400   -1.834154
C     -2.038010   -2.180247   -0.804276
C     -3.310509   -0.069621   -0.417052
C      4.913468   -0.275241    0.676830
C      2.369565    0.413314   -0.167919
C      1.004931    0.585631   -0.401800
C      2.540360   -0.498157    0.851289
C      0.365147   -0.235506    0.491943
C     -1.832911    0.307661   -0.487925
C     -1.517621    0.102493    1.949332
C     -1.113783   -0.400947    0.631630
N      1.296246   -0.871385    1.228040
N     -1.390173   -0.128808   -1.786460
O     -2.316144    1.068868    2.026055
O      6.221648   -0.604968    1.084198
O     -1.067862   -0.427550    3.148983
H     -4.943183    2.772075   -1.353672
H     -4.149711    2.362960    0.191913
H     -3.171583    2.793262   -1.315384
H      7.203572    1.116762    0.360097
H      8.278845   -0.242584    0.950921
H      7.410509   -0.387012   -0.598049
H     -2.439888    0.621728    4.356611
H     -1.677536   -0.835756    5.042636
H     -0.701257    0.663450    4.905738
H     -5.109878    0.489010   -1.492436
H     -3.610916    0.809118   -2.391099
H      5.547656    1.095281   -0.828307
H      3.267041    1.705046   -1.577049
H      1.282879    1.901210   -2.024714
H     -0.076511    2.377416   -0.998910
H     -0.871354    1.456997   -3.094690
H      0.267013    0.085083   -3.007434
H     -4.218427   -2.055367   -0.582403
H     -3.539302   -1.443224   -2.110900
H      3.942734   -1.567324    2.084057
H     -2.129720   -2.190768    1.378879
H     -0.521275   -2.450494    0.652092
H     -0.071611   -1.689704   -1.439352
H     -1.267279   -2.000731   -2.812467
H     -2.171845   -3.237980   -1.018397
H     -3.733139   -0.042557    0.580651
H     -1.770055    1.395745   -0.445863
H      1.078032   -1.557594    1.984626
