27

C     -1.874293    1.405595   -0.234634
C     -2.280749   -0.022865   -0.518934
C     -0.356671    1.463621   -0.445814
C     -1.618361   -1.000035    0.384373
C      1.716658    0.826938    0.655723
C      2.499825   -0.000786   -0.314962
C      0.556161   -1.600658   -0.532195
C      0.252837    0.604842    0.632836
C     -0.154301   -0.837514    0.544389
C      2.015696   -1.401745   -0.353263
O      2.772926   -2.342560   -0.243968
H     -2.093272    1.598427    0.830506
H     -2.409251    2.082616   -0.905455
H     -2.124012   -0.237379   -1.596864
H     -3.379538   -0.081775   -0.345229
H      0.006300    2.486939   -0.320864
H     -0.147779    1.067306   -1.456159
H     -1.799373   -2.027536   -0.047255
H     -2.126300   -0.969716    1.366661
H      2.112744    0.746729    1.700285
H      1.900525    1.905847    0.376905
H      2.440634    0.473372   -1.327765
H      3.552582    0.011298   -0.007022
H      0.266825   -1.170014   -1.511319
H      0.299425   -2.662179   -0.439943
H     -0.163866    0.989597    1.609964
H      0.134627   -1.308364    1.526890
