43

C     -4.945852    1.150960   -1.666286
C     -3.568674    0.923213   -1.103595
C      5.145528    1.398466   -2.399591
C      3.792262    1.251669   -2.185648
C      3.667592   -0.439503    1.062289
C      5.486107    0.310674   -0.289146
C     -1.141690   -0.046874    0.063190
C      1.451662   -1.143865    2.305431
C     -3.589185   -1.390756    2.525189
C      4.120900    0.166374   -0.080616
C      2.281020   -0.565109    1.233765
C      6.005149    0.910572   -1.417220
C     -2.321357   -1.006121    1.849273
C     -2.351234   -0.371874    0.627308
C      3.275083    0.651025   -1.056046
C      0.084799   -0.334185    0.678172
C      1.457743   -0.081424    0.261332
C     -1.108429   -1.281434    2.440481
C     -4.558539    0.379094    1.106715
C     -3.672141   -0.087574    0.013335
N      1.951633    0.517381   -0.865907
N      0.089742   -0.951702    1.866681
O      7.371135    1.049310   -1.615013
O     -1.105422   -1.869114    3.571476
O     -5.289734    1.377901    0.908675
O     -4.246092   -1.254334   -0.500439
O     -4.510175   -0.339810    2.289652
H     -5.371711    2.107895   -1.318579
H     -4.919746    1.188940   -2.792334
H     -5.643841    0.347302   -1.347208
H     -3.121538    1.865114   -0.767693
H     -2.975597    0.423831   -1.917182
H      5.532077    1.876651   -3.300165
H      3.131489    1.637792   -2.962110
H      4.313471   -0.825473    1.837713
H      6.148270   -0.078982    0.494185
H     -1.152084    0.448720   -0.890989
H      1.615982   -0.550059    3.239167
H      1.685222   -2.214660    2.485346
H     -3.991825   -2.347561    2.080084
H     -3.442836   -1.510600    3.604103
H      7.988075    0.701110   -0.913738
H     -3.567240   -1.992979   -0.550538
