42

C     -3.652580    2.254050    0.779038
C      3.218881    2.392586   -0.394419
C     -3.653844    0.897084    1.377478
C     -3.068800    0.074582   -1.674479
C     -1.755362    0.550247   -1.081330
C      5.139893   -1.272977   -0.841499
C      4.501448   -0.062762   -0.692618
C     -3.843930   -0.558423   -0.531171
C     -0.766877    0.287347    1.208770
C     -1.779880   -0.181324    0.242823
C      4.467606   -2.414048   -0.513495
C      3.209981   -0.004437   -0.222087
C      2.503641   -1.164684    0.119866
C      3.154948   -2.365587   -0.034134
C      1.152528   -1.020398    0.603606
Br     5.286268   -4.129770   -0.694218
N      0.585565    0.142110    0.724187
N     -3.124792   -0.160687    0.645457
O      2.563379   -3.567006    0.269062
O      0.395175   -2.103363    0.962434
O      2.539700    1.199300   -0.061110
H     -2.740465    2.841838    0.874324
H     -4.036322    2.229451   -0.283712
H     -4.446764    2.855552    1.317666
H      3.431775    2.414218   -1.487650
H      2.628665    3.290819   -0.068083
H      4.193985    2.340288    0.174539
H     -4.727867    0.642370    1.622645
H     -3.167773    0.970237    2.384532
H     -2.809577   -0.702483   -2.449386
H     -3.621918    0.851381   -2.203350
H     -0.882165    0.187698   -1.665495
H     -1.675545    1.629586   -0.992062
H      6.151402   -1.321733   -1.210098
H      5.015720    0.851782   -0.946822
H     -3.741571   -1.657268   -0.637058
H     -4.905687   -0.250739   -0.524693
H     -0.894614    1.404763    1.339201
H     -0.805960   -0.214192    2.191667
H     -1.535614   -1.255650   -0.022354
H      1.696898   -3.786348    0.603697
H     -0.199549   -2.113413    1.790332
