43

C     -4.726158    1.645880   -2.100044
C     -3.431887    1.043340   -1.605072
C      5.401768    2.047576   -1.292249
C      4.040330    1.908296   -1.231293
C      3.596825   -0.973869    0.987665
C      5.568966    0.158536    0.177930
C     -1.116856    0.203099   -0.087651
C      1.254153   -1.940423    1.656029
C     -3.724472   -1.932983    1.477687
C      4.193705    0.014994    0.241711
C      2.202931   -1.038879    0.989911
C      6.168255    1.154035   -0.573098
C     -2.443797   -1.341685    1.063925
C     -2.371504   -0.256345    0.225088
C      3.426999    0.915995   -0.483234
C      0.033514   -0.410169    0.427552
C      1.452056   -0.139519    0.266786
C     -1.282523   -1.926140    1.557177
C     -4.721279   -0.629623   -0.336640
C     -3.613266    0.340637   -0.280279
N      2.090478    0.800985   -0.440244
N     -0.055684   -1.471636    1.247302
O      7.547253    1.290039   -0.630908
O     -1.368414   -2.933006    2.334723
O     -5.629939   -0.476363   -1.164451
O     -4.016242    1.343647    0.632658
O     -4.743502   -1.691838    0.521111
H     -4.510469    2.618001   -2.572004
H     -5.157829    1.009437   -2.900268
H     -5.436437    1.849617   -1.272981
H     -2.696052    1.865957   -1.504419
H     -3.057632    0.365809   -2.394053
H      5.830762    2.832396   -1.885839
H      3.433725    2.620620   -1.804432
H      4.206912   -1.653337    1.535470
H      6.157057   -0.542398    0.741610
H     -1.012062    1.039890   -0.732590
H      1.401844   -2.966694    1.305460
H      1.406582   -1.826443    2.756498
H     -4.102997   -1.550803    2.447879
H     -3.674073   -3.052240    1.585109
H      8.176233    0.690257   -0.144219
H     -4.697270    0.995349    1.256687
