45

C      3.578811    0.979380   -0.622258
C      4.956605    1.145754   -0.562443
C      3.808160   -1.195018    0.276553
C     -3.453469   -0.628751   -0.185612
C     -5.118460    1.538122    0.326794
C      0.411474    1.712545    0.396076
C     -0.285750   -1.432244   -0.675701
C      7.454640   -1.329385    0.205703
C     -6.936136   -1.545659    0.141512
C      2.985691   -0.191921   -0.205002
C     -2.906613    0.627395    0.019403
C      0.675404    0.244834    0.691577
C     -0.682803   -0.406830    0.300135
C     -3.722898    1.708805    0.275242
C      5.760437    0.128604   -0.079724
C      5.182655   -1.058781    0.346443
C     -4.826723   -0.792840   -0.137689
C     -5.635331    0.279311    0.116065
C      1.544393   -0.322401   -0.355301
C     -1.439969    0.798528   -0.129720
O     -3.151944    2.962640    0.480411
O      1.118359   -1.628761   -0.524969
O     -0.977517    1.807404    0.684045
O      7.161408    0.053556    0.078484
O      6.256100   -1.851978    0.759054
O     -5.640716   -1.927823   -0.308439
O     -6.979957   -0.125001    0.113986
H      3.000066    1.807672   -1.001021
H      5.392095    2.076956   -0.898192
H      3.357336   -2.133257    0.614013
H     -2.834768   -1.480660   -0.388204
H     -5.718706    2.403128    0.545493
H      0.998487    2.408547    0.982815
H      0.484750    1.901010   -0.701640
H     -0.421099   -1.208706   -1.743360
H     -0.776733   -2.429684   -0.461143
H      7.653952   -1.746390   -0.802936
H      8.322835   -1.418290    0.879743
H     -7.651942   -2.006265   -0.555579
H     -7.068614   -1.914291    1.160075
H      0.920867    0.056375    1.728221
H     -1.131319   -0.854911    1.243707
H      1.235503    0.181756   -1.335478
H     -1.179433    1.031169   -1.194402
H     -3.719130    3.776358    0.684887
