22

C     -2.368439    0.963443   -0.342964
C     -1.287333   -0.872890    0.965037
C      3.145302    0.071579    1.282683
C     -1.090763    0.470140    0.295921
C     -0.042596    0.386079   -0.803453
C      1.244614   -0.089463   -0.268371
N     -0.501548   -0.444317   -1.875856
O      1.770132   -1.110734   -0.779065
O      1.921434    0.516139    0.767272
H     -3.203175    0.304371   -0.002525
H     -2.553206    1.996865    0.011131
H     -2.312909    0.928535   -1.441908
H     -0.438946   -1.551169    0.784215
H     -2.196831   -1.327744    0.506573
H     -1.422381   -0.777927    2.056555
H      3.166575    0.128279    2.389039
H      3.939259    0.733963    0.865620
H      3.408164   -0.959892    0.985503
H     -0.710054    1.194981    1.039888
H      0.063099    1.421460   -1.205217
H     -0.794159   -1.396464   -1.564228
H      0.263761   -0.585234   -2.563300
