15

C     -1.342913   -0.028839    0.914166
C      0.500589   -0.513625   -0.674826
C     -0.732751    0.313209   -0.419658
C      1.520735   -0.284881    0.353176
O     -1.675619    0.060587   -1.434473
O      1.518050   -0.843190    1.487855
O      2.583001    0.592599    0.119071
H     -0.600610    0.108744    1.698396
H     -1.744760   -1.077307    0.829978
H     -2.150226    0.714180    1.094087
H      0.894645   -0.269707   -1.689664
H      0.177605   -1.586087   -0.662562
H     -0.436468    1.394067   -0.431272
H     -1.946314    0.939629   -1.843806
H      3.435037    0.480621    0.659532
