49

C     -7.011546   -0.041178    2.533919
C     -4.982927   -1.493000   -2.433248
C     -2.855104   -0.479025    1.929789
C      4.026613   -0.340452   -1.754993
C     -4.215568   -0.332767    2.138661
C      5.396843   -0.490958   -1.748178
C      1.951964    0.841857   -0.974580
C     -0.872035   -0.970937    0.573309
C     -3.218533   -1.051746   -0.323201
C      4.237283    1.451243   -0.241267
C      1.745964    0.278633    1.477118
C      7.867635    1.281337    0.239342
C      3.407516    0.645499   -0.992884
C     -2.337720   -0.838858    0.702318
C      1.297826    0.011291    0.078712
C     -0.204640    0.313831    0.167823
C     -5.104137   -0.547101    1.105708
C      6.221318    0.318199   -0.994092
C     -4.573901   -0.906116   -0.115423
C      5.617117    1.297782   -0.235928
C     -0.262969    1.331258    1.250315
O     -1.204227    2.102089    1.570769
O     -6.495067   -0.408195    1.279148
O     -5.490165   -1.120192   -1.154368
O      0.957581    1.351631    1.952492
O      7.615530    0.368539   -0.817480
O      6.642549    1.968325    0.422014
H     -6.504714    0.911173    2.864736
H     -8.075854    0.195657    2.454644
H     -6.770586   -0.778882    3.330669
H     -4.372062   -2.419670   -2.354300
H     -4.359574   -0.691570   -2.873522
H     -5.833098   -1.744060   -3.101296
H     -2.171024   -0.301181    2.773470
H      3.394687   -0.976532   -2.346212
H     -4.612678   -0.046245    3.119852
H      5.897566   -1.261184   -2.341883
H      1.731464    1.925548   -0.863342
H      1.557018    0.510112   -1.955317
H     -0.595130   -1.745810   -0.183030
H     -0.399139   -1.296367    1.528515
H     -2.830645   -1.333523   -1.288737
H      3.805333    2.246177    0.376480
H      2.807330    0.467852    1.618769
H      1.476177   -0.601798    2.099001
H      8.159147    0.780794    1.171400
H      8.672932    1.967780   -0.145957
H      1.447945   -1.053083   -0.151280
H     -0.582294    0.703821   -0.793845
