31

C     -1.583845    0.939254   -1.144206
C      3.353195    0.501335   -1.836829
C      0.346256   -0.583568    2.036125
C      1.513506   -0.112588    2.598356
C      1.236098   -0.287782   -0.158176
C     -1.064518   -1.183699    0.082045
C      0.193583   -0.676478    0.664643
C      2.535513    0.267556    1.754440
C      2.414769    0.187065    0.378972
C     -3.255877   -0.766665   -0.828054
C     -2.076470   -0.106414   -0.184295
N     -2.501955    0.478685    1.048677
O      3.731054    0.749016    2.291588
O     -3.132679   -1.353831   -1.928246
O     -4.501877   -0.744652   -0.227897
O      3.487600    0.587921   -0.431595
H     -0.682973    1.439448   -0.710750
H     -1.375214    0.512495   -2.131712
H     -2.402420    1.677770   -1.275234
H      2.727456    1.313207   -2.235627
H      2.940686   -0.493416   -2.140207
H      4.386818    0.561480   -2.276199
H     -0.495301   -0.898480    2.652231
H      1.636969   -0.038619    3.658720
H      1.115471   -0.361106   -1.238762
H     -1.525311   -1.892123    0.807214
H     -0.876801   -1.783365   -0.844068
H     -1.871378    1.224371    1.372601
H     -3.458272    0.891544    0.953119
H      4.493793    1.033428    1.691302
H     -5.307874   -1.081790   -0.755365
