50

C      4.859541   -0.320410   -2.132052
C      5.431002    0.507317    0.154756
C     -1.001179    0.447735    2.104632
C     -3.717111    1.480984   -0.170794
C     -2.881087   -1.871801    1.403007
C      2.640461   -1.584205    0.356377
C      0.198538    1.747806   -0.334992
C      1.320320   -1.614094    0.750257
C     -1.101557    1.278931   -0.958435
C     -1.409570   -1.800618    1.266316
C     -3.612093   -0.603502    1.140542
C      2.434363    0.602551   -0.496474
C      4.668737   -0.536344   -0.666617
C      3.227771   -0.501942   -0.264813
C      1.107121    0.578621   -0.103125
C      0.537089   -0.509311    0.515662
C     -1.643865    0.039082   -0.303033
C     -3.829396   -0.624627   -1.259880
C     -0.891290   -0.421248    0.897422
C     -3.147914    0.080924   -0.140740
O     -4.516530   -1.640434   -1.034326
O     -3.724087   -0.180764   -2.577340
H      4.825608   -1.282631   -2.648920
H      5.894264    0.101090   -2.268513
H      4.177017    0.438931   -2.557744
H      5.296319    0.227772    1.215780
H      6.492016    0.407359   -0.097976
H      5.072784    1.520936   -0.026100
H     -1.429930   -0.099877    2.979436
H      0.011653    0.788973    2.466019
H     -1.594760    1.354326    1.984738
H     -3.245113    2.207907    0.469194
H     -4.781105    1.397626    0.183356
H     -3.763182    1.840810   -1.206487
H     -3.330461   -2.658275    0.727901
H     -3.131510   -2.207352    2.429334
H      3.261522   -2.447319    0.537032
H      0.719573    2.394978   -1.075640
H      0.054539    2.358312    0.564663
H      0.863635   -2.458360    1.234184
H     -0.873590    1.135502   -2.051898
H     -1.783574    2.149193   -0.924120
H     -1.086959   -2.483998    0.450419
H     -0.889913   -2.118161    2.211948
H     -4.697073   -0.880029    0.976828
H     -3.638132    0.100332    2.000345
H      2.832996    1.484123   -0.979416
H      5.081594   -1.509560   -0.379391
H     -1.463158   -0.791531   -1.058867
H     -3.824327   -0.905672   -3.302452
