46

C      4.122071    1.777193    1.246112
C      4.236645    1.020073    0.175913
C     -5.219611    0.619559   -0.643658
C     -4.895533    0.979703   -1.930588
C     -4.233922    0.371340    0.286553
C     -3.567034    1.084611   -2.262865
C      2.173496   -1.311472   -1.825411
C     -1.564428   -0.085304    2.042562
C      1.282908   -1.783285   -0.686490
C     -1.840526   -1.555372    2.294361
C      1.689592    1.002503   -0.998366
C      2.601373   -0.728938    0.921084
C      3.564584   -0.263276   -0.106996
C      2.759843   -0.008417   -1.396313
C     -2.897866    0.472664   -0.034152
C     -1.708718    0.296157    0.639676
C     -2.574521    0.832348   -1.320933
C      0.794844    0.472179    0.061401
C     -0.648942    0.547402   -0.233221
N     -1.217375    0.865851   -1.399076
N      1.226030   -0.863768    0.395355
O     -1.678713   -1.821208    3.654575
H      3.480242    1.486551    2.048375
H      4.691445    2.731301    1.333679
H      4.939952    1.430998   -0.594094
H     -6.245675    0.534032   -0.378563
H     -5.677326    1.179097   -2.677340
H     -4.529886    0.083668    1.309861
H     -3.331363    1.373130   -3.281967
H      1.601830   -1.214839   -2.781882
H      3.010829   -1.997242   -2.044426
H     -0.503952    0.096728    2.366921
H     -2.204124    0.540958    2.709489
H      0.304663   -2.130860   -1.046417
H      1.800466   -2.708601   -0.291870
H     -1.233144   -2.222071    1.664331
H     -2.943382   -1.714200    2.094341
H      2.290893    1.891039   -0.630602
H      1.168030    1.383309   -1.893599
H      2.947020   -1.765985    1.233316
H      2.495698   -0.118193    1.826422
H      4.335516   -1.059777   -0.359231
H      3.407705    0.460026   -2.174355
H      0.986965    1.082402    0.990901
H     -0.767037    1.119574   -2.314024
H     -2.429563   -2.381588    4.011211
