50

C      4.990402   -0.050501    1.886815
C      5.455783   -0.382999   -0.499832
C     -3.978729   -1.315002    0.915161
C     -3.677048    1.024331    1.471526
C     -1.169507   -0.963331   -1.805029
C     -2.955399    1.024942   -1.817408
C     -3.827586    0.304791   -0.856134
C     -1.568590    1.362891   -1.283913
C      2.320424   -0.442864    0.959829
C      1.331811    0.945684   -1.152181
C     -1.344928   -1.595739    0.995788
C      4.658426    0.447641    0.515767
C      3.204506    0.319714    0.241675
C      0.959565   -0.521284    0.641111
C      0.435747    0.172046   -0.420847
C      2.682615    1.016792   -0.828442
C      0.078704   -1.388266    1.455103
C     -1.767053   -0.216437    0.526404
C     -3.241691   -0.036821    0.466489
C     -1.008348    0.078976   -0.722211
O      3.549055    1.800378   -1.584721
O      0.564293   -1.897787    2.475306
H      5.259535   -1.130773    1.848647
H      4.125601    0.126309    2.550127
H      5.883814    0.554011    2.236854
H      6.266836    0.203849   -0.937245
H      4.774456   -0.694181   -1.324970
H      5.850763   -1.310473   -0.002272
H     -5.046959   -1.096762    0.709990
H     -3.697126   -2.143150    0.268495
H     -3.889384   -1.480300    1.994278
H     -4.055965    1.939064    1.014244
H     -4.438124    0.670327    2.177010
H     -2.801422    1.321095    2.125454
H     -2.136566   -1.463297   -1.830513
H     -0.846345   -0.490087   -2.754204
H     -0.396130   -1.760746   -1.588919
H     -2.766493    0.319083   -2.676204
H     -3.437708    1.951353   -2.242608
H     -4.714823    0.981596   -0.665048
H     -4.339318   -0.590012   -1.338517
H     -1.586665    2.198877   -0.559538
H     -0.996205    1.692615   -2.168881
H      2.695600   -1.009144    1.798723
H      0.954238    1.490871   -1.981163
H     -1.348814   -2.346446    0.192122
H     -1.907675   -1.947282    1.853194
H      5.026677    1.487432    0.409573
H     -1.361813    0.495622    1.306460
H      3.237565    2.343394   -2.387557
