27

C      2.564799   -0.889355   -0.025062
C      1.868710    0.847535    1.534419
C     -3.006694    1.154558   -1.211037
C      0.067199   -0.580380   -1.551996
C     -0.575775   -0.330450    0.964622
C      1.701293    0.367226    0.125133
C     -1.960946    0.584629   -0.670611
C     -0.559501    0.740047   -1.122354
C     -1.988824   -0.321697    0.493916
C      0.293419   -0.042028   -0.203101
O     -2.455729   -1.597385    0.163317
H      3.634165   -0.622275   -0.104846
H      2.353381   -1.586570    0.819713
H      2.263305   -1.414553   -0.960136
H      1.462824    0.130947    2.277789
H      2.977941    0.877209    1.738991
H      1.515803    1.887305    1.696291
H     -4.024360    0.988675   -0.815163
H     -2.893166    1.822430   -2.085973
H     -0.590098   -1.452673   -1.730213
H      0.858280   -0.462407   -2.289166
H     -0.303940   -1.254581    1.513501
H     -0.460437    0.522304    1.697172
H      2.056955    1.141824   -0.562882
H     -0.226223    1.673215   -1.602408
H     -2.699150    0.061434    1.273710
H     -1.873230   -2.244981    0.636374
