36

C     -4.850228   -1.118094    0.861885
C      5.939682    0.717788    0.172862
C      5.988875   -0.658166    0.086208
C      4.750441    1.409221    0.174067
C      4.782887   -1.321033   -0.000457
C     -2.039213   -0.847570   -1.325007
C     -2.272003    0.295986    0.796509
C     -0.668919   -0.734262   -1.215436
C     -0.881626    0.386338    0.862709
C      2.131974    1.162467    0.067283
C     -4.305345   -0.426964   -0.389181
C     -2.812636   -0.329642   -0.315983
C      3.536569    0.715897    0.085340
C     -0.082301   -0.119116   -0.125491
C      3.561521   -0.650267   -0.001720
C      2.202573   -1.144691   -0.088250
C     -4.806501    0.962683   -0.462285
N      1.351829   -0.021268   -0.050675
O      1.848803   -2.364094   -0.180921
O     -5.479539    1.308725   -1.462930
O     -4.574990    1.917846    0.518561
H     -5.663869   -1.775729    0.505489
H     -5.187000   -0.332250    1.549487
H     -4.023035   -1.739945    1.255299
H      6.879764    1.268466    0.241533
H      6.924744   -1.185768    0.087297
H      4.726281    2.505741    0.244326
H      4.751885   -2.408252   -0.071178
H     -2.533021   -1.318465   -2.157123
H     -2.882263    0.705469    1.595392
H     -0.040704   -1.131462   -1.993211
H     -0.399917    0.865640    1.708394
H      1.859624    1.656805    1.045186
H      1.938948    1.900547   -0.746455
H     -4.584946   -0.958000   -1.297741
H     -5.088343    2.805420    0.491511
