34

C     -3.960995    1.212690    0.265529
C      3.403519    2.204665   -0.508912
C      1.281605   -2.073297   -0.734461
C      1.759319   -1.388145    1.586049
C     -2.387691   -0.559845    0.901832
C     -1.702141    1.046532   -0.866242
C     -1.097524   -1.300074    0.810298
C     -0.518059    0.155814   -1.047009
C     -2.639063    0.493044    0.138365
C      2.485996    1.276856    0.210970
C     -0.063469   -0.296861    0.328509
C      1.316584   -0.894559    0.249659
O      1.994608    1.594759    1.320118
O      2.161896    0.064906   -0.320002
H     -4.247551    1.630076   -0.712663
H     -4.695212    0.424222    0.562207
H     -3.891627    2.005459    1.038417
H      4.336459    2.327973    0.062480
H      3.574190    1.809290   -1.542083
H      2.873068    3.182611   -0.638731
H      0.629306   -2.876831   -0.394333
H      2.300015   -2.495618   -0.844721
H      0.930917   -1.740173   -1.733109
H      1.336225   -0.735911    2.402291
H      1.343206   -2.406266    1.746638
H      2.859746   -1.484155    1.665683
H     -3.142678   -0.900319    1.620603
H     -2.205071    1.173833   -1.865530
H     -1.354303    2.056641   -0.537189
H     -0.840972   -1.741989    1.783706
H     -1.211138   -2.125403    0.063134
H      0.301629    0.590920   -1.614560
H     -0.866795   -0.757355   -1.603064
H     -0.064003    0.526506    1.056628
