47

C      6.482866   -0.758860    0.182097
C     -3.505366   -1.013362   -3.206915
C     -2.259858   -1.050811    2.814415
C     -1.849415    1.335377    2.481027
C      4.986875   -0.877648   -0.061787
C      4.376042    0.452832    0.299680
C     -4.111842   -0.073173   -0.936395
C     -3.548086    0.348432    0.395880
C     -1.763510   -0.128062   -1.816353
C      2.326430    0.837885   -1.090618
C      2.031401    0.103365    1.107033
C     -3.053475   -0.363570   -1.920567
C      2.902696    0.465259    0.102741
C     -1.324391    0.520458   -0.529210
C     -2.143527   -0.191749    0.533993
C      0.961463    0.866351   -1.325189
C      0.644466    0.124387    0.892672
C      0.114739    0.501883   -0.312211
C     -1.583555   -0.037066    1.917158
O      0.499559    1.270589   -2.597178
O     -0.182784   -0.246968    1.935652
H      6.713314   -0.120700    1.045235
H      6.963741   -1.766757    0.238994
H      6.961290   -0.272105   -0.712770
H     -2.761773   -0.919208   -4.000985
H     -3.661317   -2.083529   -2.968302
H     -4.493401   -0.552167   -3.489435
H     -1.831519   -1.024849    3.852082
H     -2.120362   -2.091658    2.400206
H     -3.349475   -0.838356    2.840703
H     -1.111875    1.489038    3.307585
H     -2.847945    1.425836    2.943654
H     -1.650617    2.137526    1.739015
H      4.573939   -1.720987    0.513638
H      4.866455   -1.099403   -1.148365
H      4.547486    0.607637    1.389635
H      4.842229    1.223910   -0.329256
H     -4.791479    0.710277   -1.344359
H     -4.732958   -0.997438   -0.744803
H     -3.528593    1.476125    0.395400
H     -4.223486   -0.027704    1.185225
H     -1.077293   -0.393503   -2.610359
H      3.003574    1.127541   -1.896096
H      2.393386   -0.202236    2.074262
H     -1.664835    1.580839   -0.491875
H     -2.166782   -1.280285    0.248137
H      1.147571    1.526606   -3.303091
