39

C      2.942755    1.359625    0.343207
C      3.741428   -0.793834   -0.474237
C     -1.852323    3.129377   -1.337011
C     -2.676216   -1.847814   -0.277002
C     -0.344372   -2.177770   -0.900229
C      1.069325   -1.770606   -0.618846
C     -2.542878    1.785058    0.638644
C     -1.965157    0.570765    1.287422
C      2.581503   -0.083669    0.209458
C     -1.810301    2.038392   -0.608249
C     -1.238955   -1.541232    0.107228
C      1.298610   -0.306536   -0.567731
C     -1.000670    0.837918   -0.914428
C      0.190471    0.521642   -0.066764
C     -1.077718   -0.076152    0.245908
H      2.507799    1.822249    1.250431
H      2.752301    1.952015   -0.574997
H      4.054203    1.401863    0.493917
H      4.670281   -0.535645    0.065654
H      3.837415   -0.406753   -1.521006
H      3.555132   -1.890973   -0.511571
H     -2.466889    3.986234   -1.065112
H     -1.272207    3.217038   -2.242641
H     -3.015395   -1.105440   -1.042530
H     -3.354204   -1.822261    0.598391
H     -2.753893   -2.840716   -0.736651
H     -0.647151   -1.936573   -1.934819
H     -0.400548   -3.287029   -0.753583
H      1.400393   -2.237227    0.323402
H      1.704866   -2.226255   -1.422152
H     -3.619784    1.646290    0.385603
H     -2.512825    2.636829    1.351961
H     -2.771562   -0.104531    1.623002
H     -1.368665    0.820795    2.205667
H      2.525181   -0.515007    1.233647
H     -1.060983   -2.021651    1.092796
H      1.531278    0.031990   -1.621518
H     -1.125521    0.372653   -1.908638
H      0.515274    1.396943    0.569880
