26

C      1.282533    1.438584   -0.421216
C      2.566182    1.491100    0.080179
C      1.038073   -0.804852    0.338544
C      0.515330    0.299251   -0.296623
C      3.095852    0.384752    0.719015
C      2.326939   -0.751524    0.841747
C     -1.906421    0.376054    0.248677
C     -0.859675    0.257634   -0.839276
C     -3.238958    0.352448   -0.401141
N     -1.836469   -0.724226    1.180331
O      4.384788    0.390750    1.240349
O      2.876680   -1.869715    1.493278
O     -1.075038   -0.916699   -1.518965
O     -3.563379    1.211753   -1.263779
O     -4.147391   -0.628374   -0.058535
H      0.911794    2.337587   -0.916092
H      3.165710    2.390284   -0.020580
H      0.484454   -1.717677    0.463204
H     -1.779414    1.312934    0.826500
H     -0.974188    1.090844   -1.557476
H     -1.939675   -1.652221    0.757664
H     -2.507552   -0.529898    1.953033
H      4.932652    1.241614    1.137110
H      2.312640   -2.702816    1.583090
H     -0.925730   -1.735165   -1.010425
H     -5.139736   -0.542422   -0.241388
