55

C      1.179659   -2.454445   -1.846327
C     -4.097708    0.055329   -0.737045
C     -3.652589    0.102348    1.633224
C      3.087054    1.053949    1.090122
C     -0.571459    0.539566    1.867053
C     -1.444996    2.419771    0.032808
C     -0.939749   -2.430782   -0.748854
C     -1.893472   -1.825571    0.264741
C     -2.831126    1.911863    0.162551
C     -0.403205    1.470531   -0.448325
C      2.744244   -1.334610    0.957807
C      1.255253   -1.322627    1.284932
C      4.046345   -0.083645   -0.805914
C      0.260475   -1.837713   -0.826150
C     -1.837034   -0.371116   -0.061596
C      4.171678    1.223118   -1.490951
C     -3.019405    0.432026    0.304911
C      2.821474   -0.103203    0.106026
C     -0.509655    0.207167    0.392745
C      0.633153   -0.700274    0.044065
O      5.142307    2.009256   -1.183891
O      3.291237    1.646071   -2.450452
O      1.652917    0.010979   -0.581143
H      2.224702   -2.375088   -1.640688
H      0.954658   -3.561597   -1.938522
H      0.909563   -1.950835   -2.818655
H     -4.639340   -0.832438   -0.386731
H     -4.834072    0.899257   -0.797727
H     -3.600599   -0.070399   -1.705151
H     -3.838720    1.048423    2.224925
H     -3.105062   -0.611771    2.246053
H     -4.685600   -0.328434    1.541229
H      2.677816    1.960423    0.614001
H      4.183984    1.226646    1.207097
H      2.627354    0.865954    2.056012
H     -1.466728    1.169204    2.042731
H      0.283997    1.128131    2.165359
H     -0.755888   -0.389492    2.415493
H     -1.042040    2.862608    0.995206
H     -1.401316    3.306662   -0.670271
H     -1.255404   -3.265088   -1.322866
H     -2.905477   -2.200070    0.050321
H     -1.481711   -2.092355    1.241616
H     -3.434547    2.348798   -0.668979
H     -3.268126    2.402767    1.087551
H      0.564442    1.954946   -0.428683
H     -0.694947    1.170480   -1.496284
H      3.340369   -1.167187    1.911063
H      3.092940   -2.260214    0.513873
H      0.950898   -2.371001    1.426734
H      1.180015   -0.694857    2.184683
H      3.987234   -0.880988   -1.528963
H      4.934489   -0.237480   -0.152068
H     -1.765459   -0.313976   -1.196071
H      3.177174    2.640979   -2.580273
