53

C     -5.850062    1.396335   -0.955164
C      1.793521   -1.860920    0.715862
C     -2.390832   -1.684820   -0.015315
C      2.003634    1.013856    1.770805
C      0.561201    0.916188    2.018693
C     -3.746875    0.730235    1.181708
C     -2.522514    0.273384    1.947134
C      4.130391   -0.884874   -1.211668
C     -0.176151   -0.523906   -1.403611
C      2.641474   -0.857528   -1.329865
C     -1.548974    0.119479   -1.531598
C      4.153855    0.587856    0.721687
C     -4.548742    0.750638   -1.186579
C      2.685064    0.375976    0.840387
C      4.559849    0.500907   -0.712600
C     -0.155513   -0.010035    1.064297
C     -3.593503    0.463954   -0.110990
C     -1.514715    0.499273    0.840174
C      0.583433    0.096240   -0.269761
C      1.923729   -0.542255   -0.058991
C     -2.283365   -0.196040   -0.261485
O     -4.232988    0.426850   -2.353995
O      5.908299    0.655684   -0.914942
H     -5.783406    2.507673   -0.926595
H     -6.635382    1.028670   -1.622084
H     -6.171952    1.105108    0.086889
H      2.753100   -2.406029    0.526183
H      0.931495   -2.446929    0.394935
H      1.788983   -1.640907    1.803155
H     -2.140373   -2.283158   -0.896642
H     -1.809182   -2.035440    0.851319
H     -3.463780   -1.940605    0.228383
H      2.565128    1.683383    2.425162
H      0.323132    0.599283    3.076035
H      0.124717    1.934935    1.924127
H     -4.629098    1.203572    1.587611
H     -2.294410    0.971559    2.758158
H     -2.614743   -0.775331    2.236914
H      4.469984   -1.631344   -0.454298
H      4.572446   -1.119714   -2.178286
H     -0.257853   -1.624330   -1.319174
H      0.366939   -0.269684   -2.333961
H      2.321082   -1.886990   -1.664409
H      2.394388   -0.118352   -2.145388
H     -1.438161    1.201625   -1.613833
H     -2.028907   -0.327546   -2.428345
H      4.726986   -0.179802    1.304032
H      4.359135    1.619895    1.081214
H      3.991605    1.266520   -1.303346
H     -0.127946   -1.048625    1.435859
H     -1.503091    1.576112    0.614150
H      0.711203    1.165701   -0.470465
H      6.117744    1.624275   -0.858954
