25

C      2.651849    0.485429   -0.844694
C     -1.158973   -0.079358   -1.455583
C     -1.938995    1.364689    0.451293
C      1.221015   -1.479512   -0.356549
C      0.041054   -0.028941    1.746016
C      1.445976   -0.155708   -0.275692
C      0.421729    0.637200    0.415242
C     -0.882689   -0.909500    0.890301
C     -0.033645   -1.908547    0.250148
C     -0.989122    0.316563   -0.020500
O     -0.371503   -3.114770    0.219299
H      2.384250    0.858886   -1.858400
H      3.496054   -0.208370   -0.984084
H      3.007321    1.331082   -0.217842
H     -2.256570   -0.046393   -1.671246
H     -0.844754   -1.130673   -1.657248
H     -0.697190    0.643267   -2.167049
H     -2.502102    0.993064    1.345958
H     -2.640007    1.693941   -0.352954
H     -1.412884    2.287778    0.812733
H      1.917931   -2.145784   -0.831099
H     -0.549560    0.683618    2.359771
H      0.850748   -0.557305    2.243199
H      0.641236    1.691703    0.589526
H     -1.801168   -1.222359    1.369452
