18

C      2.706580    0.232911   -0.664215
C     -2.478599    0.445511    0.983094
C      1.993857   -0.723298    0.257372
C     -1.709869    0.089457   -0.289317
C     -0.261873    0.245189    0.022646
O     -1.916589   -1.248310   -0.606782
O      0.158066    1.372593    0.337636
O      0.626331   -0.800975   -0.022841
H      2.229622    0.223846   -1.676969
H      3.753459   -0.165432   -0.781053
H      2.687214    1.259233   -0.267653
H     -1.803585    0.487114    1.865341
H     -2.909613    1.454945    0.808403
H     -3.330478   -0.248372    1.142758
H      2.099764   -0.337501    1.304556
H      2.413028   -1.741833    0.235620
H     -1.977196    0.739601   -1.125530
H     -2.280118   -1.284678   -1.523068
