58

C     -5.731887    1.232666   -0.377931
C      6.509076    0.314571    1.928115
C      1.219272    0.859718    1.118929
C     -2.736947    0.300778    1.681495
C      1.516326   -1.922426   -0.192935
C      0.217023   -2.140823    0.496806
C     -4.188337   -2.138748    0.431016
C     -2.758758   -2.479469    0.705008
C      3.044988    1.868394   -1.001254
C     -1.218827    1.140322   -0.805789
C      1.619464    1.515372   -1.274823
C     -2.673250    0.848475   -0.708202
C      3.287965   -0.565943   -1.280255
C     -5.570368   -0.197211   -0.113010
C      5.886903    0.503779    0.574443
C      1.982568   -0.753935   -0.591480
C      3.984667    0.713984   -0.905206
C     -0.719612   -0.997157    0.387738
C     -4.304497   -0.842880    0.189300
C     -2.078564   -1.398308   -0.038814
C     -0.278432    0.008135   -0.695058
C      1.108675    0.450080   -0.317556
C     -2.999786   -0.204370    0.278173
O     -6.653740   -0.897273   -0.160699
O      6.616464    0.641314   -0.433289
O      4.513095    0.533025    0.390852
H     -5.338102    1.798046    0.513234
H     -6.838051    1.473821   -0.347312
H     -5.289204    1.595155   -1.315212
H      5.823144   -0.203354    2.617757
H      7.389432   -0.350239    1.752360
H      6.899129    1.268091    2.325781
H      2.107556    1.499149    1.291325
H      0.349020    1.402547    1.498034
H      1.315234   -0.057667    1.768325
H     -3.740983    0.659519    2.056466
H     -2.017968    1.133343    1.707442
H     -2.417256   -0.465657    2.384259
H      2.150842   -2.788361   -0.395114
H      0.439809   -2.346344    1.581711
H     -0.230500   -3.101771    0.125698
H     -4.997334   -2.838059    0.430356
H     -2.511127   -3.503792    0.366277
H     -2.563415   -2.418536    1.774922
H      3.384217    2.505033   -1.871019
H      3.165449    2.526184   -0.114204
H     -0.954647    1.998576   -0.117165
H     -1.058387    1.598850   -1.829157
H      1.020519    2.427973   -1.239738
H      1.593839    1.030725   -2.292474
H     -3.153852    1.807689   -0.344164
H     -3.120677    0.648013   -1.704747
H      3.959424   -1.401134   -0.947006
H      3.168167   -0.622107   -2.372592
H      4.840319    0.812618   -1.634589
H     -0.678868   -0.412461    1.329930
H     -2.098210   -1.541974   -1.135054
H     -0.191000   -0.525945   -1.679519
