66

C      2.807393    1.395202   -2.465773
C     -4.802606    0.189004   -1.293723
C      0.936617   -3.515753    3.094017
C     -2.497052   -1.674393    1.532882
C      3.216663    0.904393   -1.082666
C     -3.632775    0.030677   -2.243465
C     -0.345325   -2.762819    2.692634
C      3.537073    2.087238   -0.246281
C     -2.942781    1.356990   -2.445494
C     -0.106083   -1.315765    2.968052
C      3.359299    1.885033    1.233096
C     -1.531790    1.053314   -2.915470
C      3.025084    0.435833    1.526897
C     -0.786523    0.187084   -1.921722
C     -0.145355   -0.737821    1.544886
C      1.829083    0.130125    0.625088
C     -1.744391   -0.490697   -0.984674
C     -1.130937   -1.685815    0.914060
O      3.790852    2.315664   -2.895127
O     -5.676326    1.184914   -1.733678
O      2.032725   -2.995169    2.428656
O     -3.174515   -2.797757    0.997068
O      4.874582    2.468583   -0.439023
O     -3.595232    2.022602   -3.481571
O     -0.959695   -0.704284    3.837020
O      2.250282    2.629055    1.700055
O     -0.896248    2.274433   -3.125320
O      4.130610   -0.318144    1.170591
O      0.051095   -0.721132   -2.565434
O      2.309737    0.026348   -0.633009
O     -2.808262   -0.950821   -1.777890
O      1.123042   -0.948590    1.054758
O     -0.520628   -2.910192    1.294926
O     -1.163131   -1.610132   -0.456590
H      1.857701    1.934356   -2.465376
H      2.815184    0.586688   -3.215760
H     -4.453609    0.428577   -0.266566
H     -5.403076   -0.737290   -1.219954
H      0.832830   -4.579730    2.783022
H      1.001291   -3.421936    4.195026
H     -3.099785   -0.799837    1.277056
H     -2.518966   -1.806789    2.604016
H      4.188853    0.352024   -1.257992
H     -4.033801   -0.284907   -3.235981
H     -1.210015   -3.180501    3.246675
H      2.932237    2.972941   -0.533072
H     -2.960787    2.003459   -1.563252
H      0.933267   -1.119685    3.370032
H      4.224294    2.239138    1.833009
H     -1.566883    0.540589   -3.893983
H      2.700195    0.319352    2.557683
H     -0.164493    0.876496   -1.323051
H     -0.532925    0.266055    1.527254
H      1.177541    1.022564    0.723904
H     -2.091656    0.258263   -0.252103
H      4.707710    1.935051   -2.778810
H     -6.271509    0.861441   -2.456479
H      2.678000   -3.663705    2.132628
H     -2.660423   -3.268549    0.323514
H      5.272724    2.813880    0.401485
H     -4.169449    2.758565   -3.151683
H     -0.524186   -0.000647    4.379759
H      1.808109    3.113941    0.956837
H     -0.683355    2.713390   -2.250750
H      4.482735   -0.893482    1.867967
H     -0.082235   -0.676920   -3.554664
