51

C      4.987011   -0.082207    0.750821
C      3.692784   -0.966260   -1.157548
C     -2.623026   -1.880335   -1.249749
C     -3.055731   -2.163633    1.122395
C     -1.269644    0.820137   -1.659499
C     -3.478782    1.304452   -0.039439
C      0.924300   -1.208746   -0.242405
C      0.606052    2.455008    0.423038
C      1.907620    2.847529    0.704633
C     -0.339122   -1.573975    0.487750
C     -3.828205   -0.110119    0.077806
C     -2.100740    1.739715    0.380749
C      3.608394   -0.513322    0.303426
C      1.297414    0.184763    0.083948
C      0.318155    1.145317    0.119563
C      2.872497    1.852361    0.659747
C     -1.390310   -0.539663    0.489467
C      2.593556    0.558318    0.360866
C     -2.722819   -1.112886    0.041776
C     -1.083612    0.748729   -0.180178
O      4.160303    2.253433    0.940539
H      5.493522    0.612250    0.061461
H      5.570353   -1.056006    0.826923
H      4.910404    0.259027    1.797226
H      2.894569   -0.506525   -1.775453
H      3.672482   -2.065703   -1.258702
H      4.687456   -0.631195   -1.571684
H     -3.460523   -1.584854   -1.936795
H     -2.779016   -2.991736   -1.119392
H     -1.630959   -1.804792   -1.736872
H     -2.523568   -3.111300    0.836042
H     -2.741269   -1.813033    2.121282
H     -4.138814   -2.319560    1.073400
H     -2.262140    0.484407   -2.017441
H     -0.479410    0.415657   -2.280798
H     -1.276005    1.930411   -1.901558
H     -3.624370    1.687738   -1.093510
H     -4.188936    1.951553    0.560297
H      1.671527   -1.965131    0.035914
H      0.725764   -1.384561   -1.319836
H     -0.136251    3.258165    0.465596
H      2.143006    3.883306    0.946064
H     -0.718211   -2.521353    0.005251
H     -0.021022   -1.911747    1.514000
H     -4.493772   -0.240329    0.977664
H     -4.514040   -0.374290   -0.785284
H     -2.061494    1.723543    1.484358
H     -1.965465    2.762216   -0.036313
H      3.353531   -1.369960    0.962962
H     -1.571161   -0.282610    1.582813
H      4.387716    3.207797    1.164679
