43

C     -3.976623   -0.843663    0.386218
C      3.892341    1.105608    0.528480
C     -3.922199    0.601017    0.716989
C      4.024233   -0.379909    0.649513
C     -2.616935   -1.526141    0.419097
C      2.403591    1.429037    0.335953
C     -2.670411    1.318764    0.448852
C      2.708266   -1.047160    1.057505
C      0.081394   -0.451643   -1.974757
C      0.446852   -1.305968    0.345034
C     -0.445560    1.340382   -0.287890
C     -0.456266   -1.362859   -0.856590
C      0.536621    0.799690   -1.225808
C     -1.751653   -0.687513   -0.490249
C      1.857685    0.400398   -0.593376
N     -1.522572    0.547165    0.129458
N      1.776935   -0.917155   -0.011870
H     -4.370479   -1.002835   -0.641416
H     -4.691457   -1.395967    1.059514
H      4.373737    1.413745   -0.443641
H      4.332369    1.679496    1.343678
H     -4.254997    0.711146    1.792404
H     -4.751970    1.108397    0.139220
H      4.291966   -0.846901   -0.338753
H      4.841692   -0.648976    1.337731
H     -2.227949   -1.434596    1.447531
H     -2.738647   -2.553918    0.078517
H      1.971211    1.353041    1.376249
H      2.283778    2.422065   -0.098379
H     -2.414045    1.938423    1.359522
H     -2.788392    2.094693   -0.365093
H      2.948819   -2.126380    1.192165
H      2.393850   -0.561223    1.999736
H     -0.751689   -0.202689   -2.661391
H      0.945839   -0.896517   -2.472729
H      0.019430   -0.675801    1.172259
H      0.498385   -2.332738    0.762614
H      0.103357    1.699748    0.634177
H     -0.863363    2.299085   -0.719428
H     -0.576006   -2.359882   -1.280939
H      0.793933    1.537653   -2.041874
H     -2.323483   -0.551144   -1.437573
H      2.588411    0.312024   -1.450383
