51

C      4.954096    0.448874    0.731632
C      3.756441    1.111115   -1.279749
C     -3.424163    1.248420   -0.899772
C     -2.954716    2.094669    1.334114
C     -1.068322   -0.815742   -1.730244
C     -3.429020   -1.501502    0.272423
C      0.861809    1.152304   -0.566243
C      0.697587   -2.351224    0.742908
C      1.985989   -2.557444    1.107365
C     -0.503258    1.616058   -0.126413
C     -3.637093   -0.224629    1.020837
C     -1.972627   -1.875443    0.342507
C      3.570796    0.749964    0.181731
C      1.270184   -0.119967    0.011764
C      0.345505   -1.139125    0.198881
C      2.934279   -1.536487    0.924676
C     -1.380811    0.504629    0.389505
C      2.590179   -0.318272    0.380185
C     -2.815777    0.884875    0.400393
C     -1.065593   -0.825336   -0.233985
O      4.240385   -1.781705    1.307614
H      5.507984   -0.299050    0.133706
H      4.976167    0.310044    1.816379
H      5.567632    1.399420    0.573517
H      4.822307    0.921553   -1.612096
H      3.615012    2.191720   -1.486461
H      3.152972    0.477646   -1.947599
H     -2.914798    2.042901   -1.465324
H     -4.447819    1.672439   -0.667266
H     -3.630437    0.399868   -1.581469
H     -2.198331    2.075738    2.137734
H     -3.993235    2.092345    1.708373
H     -2.845679    3.021759    0.722743
H     -1.323210    0.156776   -2.184857
H     -0.089426   -1.124690   -2.166888
H     -1.784338   -1.625748   -2.055108
H     -3.816553   -1.449421   -0.747020
H     -3.987715   -2.306825    0.807995
H      1.581323    1.936851   -0.278146
H      0.852090    1.029706   -1.690805
H     -0.098670   -3.076870    0.846341
H      2.290874   -3.491999    1.534084
H     -0.944022    2.174475   -0.977184
H     -0.400171    2.377827    0.694081
H     -3.299830   -0.349548    2.068015
H     -4.701970    0.067191    0.942106
H     -1.839678   -2.864255   -0.166729
H     -1.718157   -1.953677    1.430669
H      3.284052    1.715624    0.700973
H     -1.087597    0.382763    1.479548
H      4.515356   -2.668592    1.709179
