31

C     -1.957751    1.672589   -0.700174
C     -2.549699    1.030673    0.538911
C      1.049899   -2.186063   -0.125363
C      1.709024   -1.066384   -0.907940
C     -0.516163    1.380278   -0.880594
C     -2.117470   -0.404795    0.522095
C     -0.401292   -1.848051   -0.051677
C      2.426802    0.226961    1.037024
C      1.486921    0.205023   -0.176288
C      0.083270    0.506879    0.195511
N     -0.714948   -0.608740    0.555268
O      2.217961    1.419949    1.723000
H     -2.216179    2.745472   -0.713264
H     -2.513965    1.216410   -1.569038
H     -2.293723    1.550136    1.464716
H     -3.666327    1.030448    0.372673
H      1.513668   -2.347353    0.857700
H      1.135668   -3.119932   -0.752092
H      1.244974   -1.045174   -1.904005
H      2.789917   -1.288982   -0.925927
H     -0.293243    0.974947   -1.881269
H      0.037940    2.363326   -0.831190
H     -2.531986   -0.861821   -0.419228
H     -2.628313   -0.977902    1.348790
H     -0.948758   -2.653635    0.510810
H     -0.804380   -1.889921   -1.098623
H      3.462152    0.251928    0.593952
H      2.308384   -0.651388    1.668819
H      1.887063    1.034098   -0.833384
H      0.138553    1.164630    1.115868
H      2.662005    2.176394    1.264919
