32

C      2.451781    0.342352    1.372148
C     -4.727574   -0.165198   -0.227740
C     -3.874833   -1.200236    0.090589
C      3.783727    0.645104    1.158557
C      2.139845    0.055540   -0.940537
C     -2.905024    1.270938   -0.647093
C     -0.097319   -1.754395    0.585333
C      1.596986    0.039883    0.325479
C     -4.266157    1.082432   -0.600391
C     -2.519188   -0.990980    0.037579
C      4.299612    0.653208   -0.118681
C     -1.539909   -2.017170    0.353469
C      3.470028    0.354286   -1.193284
C      0.163436   -0.285421    0.561140
C     -2.022997    0.260513   -0.335954
O     -5.206979    2.052742   -0.899874
O      5.632709    0.953126   -0.366392
O     -1.972326   -3.212795    0.430920
O      3.997794    0.365545   -2.467467
O     -0.653719    0.402213   -0.368442
H      2.052400    0.336438    2.364898
H     -5.789987   -0.342411   -0.182213
H     -4.243173   -2.166661    0.379164
H      4.455302    0.883959    1.994274
H      1.507704   -0.174645   -1.785716
H     -2.530679    2.237338   -0.935620
H      0.546395   -2.312826   -0.123198
H      0.140865   -2.168752    1.607389
H     -0.079517    0.111991    1.578934
H     -5.000234    2.987779   -1.180188
H      6.218832    1.167518    0.427698
H      4.972197    0.588587   -2.606659
