42

C     -1.466602    2.851016   -0.063488
C      3.032558   -0.907573   -1.029356
C      3.297010    1.376160   -0.227635
C     -1.463752   -1.029545   -1.497937
C     -3.617189   -0.305187    0.099907
C     -3.118480    1.085250   -0.043705
C      0.956699   -1.320406    1.150910
C     -2.584954   -1.247790    0.650621
C     -0.167978   -1.891585    0.380639
C      0.488079    0.679720   -0.237004
C     -1.861740    1.440988    0.099817
C      1.465209   -0.002249    0.703606
C     -0.860894    0.436309    0.421012
C      2.863437   -0.022488    0.160040
C     -1.264672   -0.966887    0.021828
O      3.713084   -0.436146    1.186394
H     -2.335839    3.539023   -0.084376
H     -0.774053    3.198172    0.754245
H     -0.853230    2.947524   -1.005972
H      2.774551   -0.315482   -1.932671
H      4.138240   -1.117180   -1.126407
H      2.545142   -1.879024   -0.967184
H      4.388325    1.516700   -0.189527
H      2.761611    2.071908    0.474611
H      2.858686    1.583964   -1.231263
H     -2.375696   -1.603011   -1.757329
H     -1.469847   -0.020171   -1.947941
H     -0.604055   -1.567269   -1.982831
H     -4.484047   -0.313489    0.816570
H     -4.033476   -0.628697   -0.878095
H     -3.885552    1.835860   -0.286571
H      1.813047   -2.055481    1.102962
H      0.665124   -1.332051    2.242495
H     -2.520464   -1.082019    1.743032
H     -2.947588   -2.292638    0.424038
H     -0.613896   -2.727144    0.996665
H      0.252042   -2.428239   -0.520073
H      0.708370    1.743425   -0.379906
H      0.497158    0.151023   -1.221442
H      1.497206    0.667469    1.615266
H     -0.763220    0.407703    1.546875
H      3.351647   -0.040464    2.019178
