31

C     -1.759581   -1.776295   -0.403404
C     -2.716852   -0.671950   -0.180690
C      0.997007    2.265921    0.393107
C      1.788109    1.330676   -0.426728
C     -0.446224   -1.655428    0.285122
C     -2.117744    0.303055    0.842182
C     -0.458697    2.013599    0.478722
C      2.220068   -0.980391   -0.949131
C      1.125172    0.022271   -0.754027
C      0.155396   -0.308139    0.324539
N     -0.878110    0.689602    0.272335
O      2.963748   -1.077040    0.228474
H     -1.578586   -1.969269   -1.496491
H     -2.241374   -2.727752   -0.032991
H     -3.740317   -0.951645    0.060223
H     -2.773022   -0.069647   -1.134017
H      1.406272    2.346948    1.443330
H      1.145348    3.304111   -0.024976
H      2.756929    1.127203    0.111516
H      2.119306    1.786997   -1.405396
H     -0.601929   -1.997508    1.351995
H      0.229739   -2.445833   -0.147032
H     -2.750293    1.182003    0.992991
H     -2.009780   -0.292027    1.781071
H     -0.847979    2.356377    1.482685
H     -1.008432    2.677516   -0.252431
H      2.911137   -0.572183   -1.717157
H      1.881718   -1.958710   -1.319623
H      0.573826    0.168988   -1.726039
H      0.692331   -0.151887    1.306836
H      2.962813   -1.969562    0.615006
