44

C      4.698542    0.798575   -0.622428
C      4.472111   -1.390948    0.412291
C      0.283340    0.254036   -1.839528
C     -3.063311   -4.465188    0.074516
C     -2.471599   -3.725124   -0.926889
C     -3.306645   -3.878591    1.298152
C     -2.126946   -2.390902   -0.686662
C     -2.954988   -2.569549    1.499218
C     -2.448982    2.383758    0.752213
C     -2.657485    3.766498    0.856158
C     -0.249417    2.726939    0.005969
C      3.785642   -0.024704    0.253656
C      0.064704   -0.139948   -0.439084
C     -2.350382   -1.773455    0.516036
C     -1.257756    1.849125    0.332427
C     -0.460342    4.084731    0.110246
C     -1.643644    4.634430    0.529131
C     -1.974876   -0.436683    0.883480
C      1.335262    0.139812    0.343331
Cl     0.857979    5.162708   -0.315427
F     -1.822756    5.987209    0.623624
N     -1.077810    0.437914    0.230492
O     -2.521985    0.037758    1.944049
O      1.355113    0.638426    1.476807
O      2.501356   -0.197827   -0.284734
H      4.738542    0.324774   -1.638425
H      5.711931    0.732575   -0.181771
H      4.370901    1.857314   -0.699023
H      5.234798   -1.315120    1.240042
H      3.727006   -2.155743    0.699009
H      4.957113   -1.695921   -0.526466
H      1.263188    0.783741   -2.032637
H     -0.576397    0.785326   -2.310755
H      0.402959   -0.694419   -2.448184
H     -3.352588   -5.497556   -0.046992
H     -2.284926   -4.191765   -1.880374
H     -3.771933   -4.424117    2.118029
H     -1.697590   -1.822066   -1.522639
H     -3.168633   -2.141592    2.494936
H     -3.334277    1.809682    1.019750
H     -3.602555    4.169184    1.189255
H      0.736646    2.390051   -0.361866
H      3.686815    0.440021    1.248362
H     -0.006127   -1.263370   -0.304838
