43

C      3.962571    0.793272   -0.499118
C     -3.929172   -0.935869   -0.543091
C      3.943736   -0.669884   -0.755380
C     -3.990372    0.543606   -0.370850
C      2.588099    1.419186   -0.423791
C     -2.541846   -1.504544   -0.237679
C      2.840958   -1.417068   -0.077080
C     -2.753512    1.263058   -0.857001
C     -0.057688    0.274295    1.986406
C     -0.445071    1.451790   -0.202576
C      0.458397   -1.463038    0.238507
C      0.479119    1.235341    0.932154
C     -0.543343   -0.924613    1.171162
C      1.761607    0.561832    0.494556
C     -1.800217   -0.428173    0.517348
N      1.581973   -0.709465   -0.082354
N     -1.581519    0.669683   -0.319229
H      4.497732    1.296025   -1.333961
H      4.551599    1.052384    0.421905
H     -4.631069   -1.396626    0.203026
H     -4.289205   -1.285350   -1.534904
H      3.931534   -0.909911   -1.856093
H      4.908833   -1.099998   -0.390294
H     -4.246194    0.813176    0.683353
H     -4.839947    0.929503   -0.988779
H      2.713456    2.439531   -0.023714
H      2.181687    1.415053   -1.458643
H     -2.046502   -1.607176   -1.232966
H     -2.592838   -2.461447    0.280530
H      3.059967   -1.688081    0.971591
H      2.690718   -2.384743   -0.625218
H     -2.846638    2.319200   -0.528079
H     -2.766417    1.229322   -1.978701
H      0.746703   -0.044292    2.651404
H     -0.935268    0.696691    2.511483
H      0.164728    1.367460   -1.152304
H     -0.741924    2.543222   -0.190074
H     -0.077456   -1.741448   -0.718686
H      0.796169   -2.467027    0.635927
H      0.774499    2.183578    1.451969
H     -0.863753   -1.679098    1.940444
H      2.372930    0.436694    1.436787
H     -2.487066   -0.116050    1.358391
