42

C      5.256220   -0.632644    1.403692
C     -3.403523   -0.858746    2.903092
C     -5.910451   -0.229996   -1.056510
C      4.962785    0.653548    0.690341
C      3.585912    1.182734    0.976233
C      2.765511   -0.085519   -0.949658
C     -1.699248   -0.335083    0.781211
C      2.587343    0.151357    0.527618
C     -0.846408   -0.069501   -0.290328
C     -3.048466   -0.082019    0.657659
C      1.360179   -0.492305   -1.374917
C     -1.370737    0.443862   -1.459582
C     -2.728381    0.689278   -1.558950
C      0.590832   -0.356177   -0.111473
C     -3.601790    0.426226   -0.485685
C     -0.422290    0.694857   -2.532507
O     -3.280686    1.187580   -2.675852
O     -0.828080    1.158230   -3.615879
O     -3.943966   -0.335363    1.713809
O     -4.934834    0.672687   -0.598089
O      1.267795    0.645626    0.570816
O      0.951045    0.423397   -2.370340
H      6.201008   -0.590208    2.007832
H      5.421186   -1.479480    0.677681
H      4.437056   -0.969506    2.069493
H     -2.838394   -0.037626    3.431144
H     -4.194234   -1.177174    3.612886
H     -2.739915   -1.734346    2.722589
H     -5.643140   -1.293849   -0.880571
H     -6.912999    0.013303   -0.642637
H     -5.984529   -0.103053   -2.156941
H      5.146288    0.500740   -0.392319
H      5.750095    1.391943    1.019297
H      3.524994    1.388599    2.063022
H      3.445748    2.113085    0.415642
H      3.069493    0.883619   -1.400666
H      3.498915   -0.887390   -1.166632
H     -1.286473   -0.737236    1.696399
H      2.637733   -0.766939    1.124743
H      1.367584   -1.529063   -1.723637
H      0.696584   -1.281185    0.491803
H     -2.905760    1.443738   -3.523513
