23

C     -4.124666   -0.656885   -0.412016
C     -2.794248    0.093633   -0.422118
C      0.629804   -0.114020   -0.089115
C     -0.221258    0.271951    1.109695
C      1.977424    0.564739    0.059002
C      2.796494    0.177939   -1.117169
N      2.535874    0.178164    1.309584
O      2.338728    0.497536   -2.244240
O      3.987994   -0.488042   -1.044169
S     -1.832243   -0.519528    0.969420
H     -4.429955   -0.792038    0.640593
H     -4.924049   -0.107379   -0.929659
H     -3.934297   -1.668841   -0.820196
H     -2.284098   -0.096649   -1.408176
H     -2.961049    1.194360   -0.391137
H      0.099585    0.192720   -1.014322
H      0.753341   -1.207207   -0.140383
H      0.259155   -0.161850    2.034678
H     -0.315078    1.361367    1.210068
H      1.826984    1.669320    0.065408
H      3.464731    0.586018    1.517563
H      2.403677   -0.795661    1.585995
H      4.747150   -0.179647   -1.668764
