52

C      2.860440    2.967019   -2.442488
C      2.647343   -2.891458    1.841319
C      5.115134    1.024880    1.290165
C     -3.323102   -1.371046   -0.385196
C      1.469463    0.838647   -1.306195
C      1.314821   -1.063555    0.057554
C     -1.177935    1.651403    0.254798
C     -2.271842   -3.595483   -1.000152
C     -2.980171    3.961856    2.436448
C      0.678357   -0.188954   -0.795776
C     -2.079425   -2.228477   -0.436016
C     -1.636109    0.424853   -0.241689
C     -2.840879   -0.072197    0.131935
C      2.787371    1.021678   -1.020641
C      2.666222   -0.922590    0.385041
C     -1.974984    2.350993    1.134550
C     -0.745843   -0.271946   -1.183465
C     -1.248491   -1.603057   -1.541884
C     -3.622171    0.641626    1.011161
C      3.393039    0.128315   -0.163227
C     -3.189933    1.854497    1.513761
C     -0.281967   -2.676705   -1.772431
O     -4.876808    0.224183    1.460380
O      0.923594   -2.671781   -2.139057
O      3.507370    2.070284   -1.569374
O      3.309186   -1.798724    1.241541
O      4.729334    0.255016    0.170049
O     -0.950695   -3.863756   -1.499990
O     -1.793130    3.582442    1.789890
O     -3.749862    2.778983    2.398072
H      3.546931    3.687649   -2.898222
H      2.362444    2.390290   -3.258987
H      2.033449    3.463169   -1.868415
H      1.937126   -3.397930    1.134032
H      2.058094   -2.473191    2.696720
H      3.361042   -3.640919    2.239705
H      5.724688    1.888813    0.949125
H      4.251550    1.397185    1.871806
H      5.776760    0.373351    1.917454
H     -3.621764   -1.186622   -1.458688
H     -4.138814   -1.830443    0.164991
H      0.995869    1.558234   -1.993018
H      0.753632   -1.873204    0.480133
H     -0.239901    2.082688   -0.008262
H     -3.006178   -3.556803   -1.823325
H     -2.517226   -4.341366   -0.218933
H     -3.493573    4.751286    1.842071
H     -2.791628    4.302009    3.479438
H     -1.578632   -2.296793    0.526995
H     -0.831173    0.352167   -2.137767
H     -1.914480   -1.590308   -2.448498
H     -5.326548   -0.616208    1.192562
