22

C      2.682971   -0.270644    0.913561
C      1.426866   -0.770414    0.553478
C     -1.360133   -1.388188   -0.001814
C     -1.940895   -0.305066    0.903761
C      3.219475    0.818154    0.260992
C      1.353870    0.960854   -1.089041
C      0.761995   -0.141256   -0.460369
C     -0.569329   -0.549841   -0.952863
C     -2.142343    0.785627   -0.106523
N      2.546971    1.404845   -0.718740
N     -1.380068    0.631964   -1.118574
O     -3.043625    1.853392    0.011908
H      3.201812   -0.775091    1.717167
H      1.009348   -1.621947    1.064748
H     -0.841062   -2.178977    0.517594
H     -2.207398   -1.845645   -0.553013
H     -2.887102   -0.676039    1.314893
H     -1.259726   -0.018058    1.704748
H      4.192446    1.161061    0.580643
H      0.836591    1.479875   -1.905050
H     -0.474604   -1.114440   -1.908288
H     -3.126058    2.559835   -0.729220
