26

C     -0.420749    2.298044    0.435089
C     -0.222088   -0.259200    2.037583
C     -2.086464   -0.416609    0.365142
C      1.906102    0.281084   -0.910780
C      1.630791   -1.047891   -0.208726
C     -0.142579   -0.572878   -1.640845
C     -0.186032    1.093591   -0.034833
C      0.528832    0.764669   -1.286402
C      0.121958   -1.213939   -0.261567
C     -0.592110   -0.221094    0.595256
H     -0.077736    3.158287   -0.110684
H     -0.962789    2.441854    1.378439
H      0.626395   -0.899509    2.282440
H     -0.099171    0.789472    2.425098
H     -1.107395   -0.658506    2.604901
H     -2.293746   -1.393940   -0.137591
H     -2.615162   -0.391708    1.339767
H     -2.474815    0.391053   -0.303340
H      2.538553    0.137803   -1.809797
H      2.412122    0.934985   -0.195280
H      2.036081   -1.076856    0.800219
H      2.051466   -1.851067   -0.865081
H      0.381211   -1.101978   -2.431563
H     -1.214094   -0.443039   -1.792799
H      0.481100    1.491727   -2.069512
H     -0.219681   -2.234356   -0.205136
