56

C      0.235563   -5.540676   -0.438293
C      5.045750   -2.851038   -0.522986
C      4.895191    3.037196   -0.283695
C     -0.102663    5.485803    0.008273
C     -5.351299    0.055145    1.347804
C     -4.623675   -1.124047    0.787636
C     -4.430119    1.197456    1.069037
C     -2.343018   -1.367768   -0.170447
C      0.192767   -2.759681   -0.327118
C      2.577919   -1.328816   -0.365309
C      2.515179    1.463194   -0.252796
C      0.090828    2.757597   -0.107010
C     -2.391678    1.269634   -0.069999
C     -3.166648   -0.750666    0.942372
C     -1.026877   -0.728504   -0.199388
C      0.182944   -1.385958   -0.272623
C      1.381341   -0.652325   -0.291271
C      1.360115    0.722537   -0.236937
C      0.139257    1.367701   -0.163830
C     -1.059029    0.678816   -0.143557
C      1.401160   -3.413676   -0.400729
C      2.589904   -2.730451   -0.420932
C      2.487691    2.856468   -0.196723
C      1.247357    3.495365   -0.123051
N     -3.069783    0.652274    1.059875
O      1.423509   -4.808605   -0.456521
O      3.779866   -3.438470   -0.495915
O      3.632815    3.628789   -0.210976
O      1.162545    4.869075   -0.065494
H     -0.347319   -5.312394    0.498290
H      0.418042   -6.614813   -0.427894
H     -0.376141   -5.293126   -1.325533
H      5.035735   -1.951491   -1.172735
H      5.383482   -2.568349    0.496105
H      5.774257   -3.609338   -0.885771
H      5.625539    3.846194   -0.527128
H      5.162920    2.592985    0.698320
H      4.892007    2.298522   -1.110032
H     -0.621371    5.252181    0.972024
H     -0.766637    5.159715   -0.843497
H     -0.038535    6.589080   -0.087986
H     -5.512984   -0.129140    2.430375
H     -6.332427    0.144204    0.811304
H     -4.899026   -1.335151   -0.258015
H     -4.851387   -2.041212    1.377920
H     -4.699788    1.606264    0.064251
H     -4.504429    1.998893    1.818645
H     -2.869395   -1.069927   -1.130268
H     -2.418510   -2.435550   -0.152380
H     -0.731851   -3.303119   -0.312709
H      3.529372   -0.823116   -0.383121
H      3.501177    1.040265   -0.307960
H     -0.844415    3.277165   -0.048962
H     -2.959389    0.908643   -0.984906
H     -2.510423    2.332958   -0.096882
H     -2.815415   -1.216709    1.889146
