15

C     -0.992019    1.108266   -0.211874
C      0.443973   -0.814664   -0.790163
C     -0.850539   -0.377005   -0.128195
C      1.648939   -0.253305   -0.171660
O     -1.953077   -0.977790   -0.717170
O      2.316216   -0.977990    0.649205
O      2.146616    1.010595   -0.386537
H     -1.572438    1.531689    0.652414
H     -1.612128    1.371778   -1.118727
H     -0.053862    1.655595   -0.339844
H      0.414342   -0.587157   -1.880146
H      0.467104   -1.935770   -0.685980
H     -0.805947   -0.675873    0.949399
H     -2.485151   -1.464282   -0.034850
H      2.887973    1.385913    0.221673
