35

C     -2.854196    3.318754   -0.107402
C     -1.999142   -3.256387    0.379003
C     -2.351557    2.007226    0.495576
C     -1.575455   -0.879073    0.649301
C      1.780692    0.642819    0.156897
C     -1.815860   -1.919241   -0.365266
C      0.655874   -0.035754   -0.150950
C     -0.743377    0.287737    0.346459
C      2.969424    0.223195   -0.369291
C      0.799036   -1.122666   -0.992591
N      5.593701   -0.168151    0.708641
N     -1.336754    1.388796   -0.329554
O     -0.095364   -3.561659   -1.674963
O     -0.907444   -1.629529   -2.893015
O      4.421751    2.164579    0.661548
O      5.101995    1.258608   -1.499436
S      2.525950   -1.145469   -1.315398
S     -0.521453   -2.129435   -1.525589
S      4.570992    0.909873   -0.128370
H     -2.125481    3.811518   -0.741326
H     -3.081687    4.049515    0.724933
H     -3.809534    3.125985   -0.601740
H     -1.704172   -3.151052    1.446523
H     -1.332023   -4.039832   -0.049510
H     -3.022234   -3.624752    0.347288
H     -2.000807    2.252665    1.517000
H     -3.212368    1.318356    0.617155
H     -2.579716   -0.495001    0.954074
H     -1.191620   -1.376743    1.585958
H      1.809937    1.544898    0.825709
H     -2.772150   -1.775757   -0.911178
H     -0.561822    0.735408    1.416464
H      5.902568   -0.997363    0.210690
H      6.178904    0.232624    1.437132
H     -0.716607    2.035308   -0.824773
