46

C     -3.236597   -1.937623    1.734655
C     -3.701087   -1.866962   -0.651720
C      4.717392    1.101557    0.680849
C     -1.010758    2.422360   -1.600538
C      4.769362   -1.951504   -1.468454
C      3.416353   -2.129171   -1.659631
C      5.200910   -0.900884   -0.706931
C      2.468697   -1.298555   -1.120404
C     -2.596237    2.060453    0.223556
C     -3.373205    0.785218    0.599121
C     -1.149087    0.177229    1.320981
C      1.966345    0.726879    0.282656
C     -2.649295   -1.612958    0.390329
C      4.250334   -0.040455   -0.146832
C      2.901308   -0.242357   -0.354899
C     -0.316625    1.133716    0.458053
C     -1.377119    1.527789   -0.516327
C     -2.249982   -0.197475    0.364212
O      0.699955    0.384825   -0.020209
O     -1.819037    0.243721   -0.909591
H     -2.471477   -1.797314    2.525647
H     -4.131041   -1.322929    1.880552
H     -3.553830   -3.016831    1.694194
H     -4.647179   -1.409379   -0.307015
H     -3.402056   -1.533262   -1.660218
H     -3.881534   -2.974185   -0.668003
H      4.270057    2.064004    0.353280
H      4.445901    0.953079    1.760785
H      5.815338    1.185878    0.629919
H      0.018126    2.854546   -1.462685
H     -1.675787    3.332303   -1.622685
H     -1.117159    2.002648   -2.643058
H      5.513666   -2.613453   -1.898724
H      3.102580   -2.965456   -2.264346
H      6.253426   -0.725964   -0.532361
H      1.404112   -1.408847   -1.250051
H     -2.318084    2.627183    1.132504
H     -3.232809    2.642237   -0.477759
H     -3.672360    0.798974    1.658270
H     -4.217566    0.640887   -0.094799
H     -1.527205    0.751974    2.193512
H     -0.563521   -0.663566    1.685901
H      2.203576    1.716963   -0.191585
H      2.220328    0.721821    1.361026
H     -1.778119   -2.246457    0.213722
H      0.030990    1.999342    1.085102
