75

C      8.839523    0.160626   -1.743302
C      8.862955    2.445346   -0.746060
C      4.518987    0.047943    2.023079
C      0.118304    0.477306   -1.211393
C     -7.243943   -2.863990    0.250012
C     -3.830326   -0.089732    2.724269
C      6.368592   -0.367914   -0.435343
C      2.216476   -0.925657    0.695201
C     -2.158712   -0.410214    0.344291
C      6.888289    1.033608   -0.575103
C      4.858278   -0.333712   -0.455675
C      2.708407    0.441045    0.430563
C      0.755121   -1.171960    0.607875
C     -1.384042   -1.320300   -0.576604
C     -5.918099    1.915769    0.541560
C     -3.584614   -0.859589    0.395480
C     -4.547205    1.414206    0.931936
C     -8.270545   -1.133811   -1.222367
C     -7.618962    1.148787   -1.062490
C      8.407817    1.014153   -0.568061
C      4.233835    0.463296    0.623681
C      0.078980   -0.917704   -0.683281
C     -7.391070   -1.467882   -0.225119
C     -6.738264    0.853975   -0.072970
C     -8.399785    0.164638   -1.654792
C     -6.625482   -0.473103    0.348805
C     -4.446123   -0.005607    1.306601
O     -9.275508    0.529808   -2.655221
O     -5.703083   -0.671185    1.361001
H      8.128246    0.318265   -2.604921
H      9.819201    0.486978   -2.095011
H      8.778384   -0.911204   -1.470284
H      9.908770    2.442413   -1.099870
H      8.156034    2.943042   -1.425745
H      8.809866    2.939225    0.256297
H      4.638385   -1.045334    2.157899
H      3.660417    0.344089    2.662498
H      5.395361    0.617601    2.421107
H      0.791220    0.516789   -2.105873
H     -0.889338    0.768703   -1.665140
H      0.297326    1.266019   -0.469320
H     -7.137190   -2.908677    1.355476
H     -6.365991   -3.375267   -0.204699
H     -8.135596   -3.417684   -0.093473
H     -3.303339   -1.033825    2.867119
H     -3.199333    0.806566    2.904798
H     -4.708231    0.026949    3.418866
H      6.782342   -0.906450    0.425874
H      6.676687   -0.947116   -1.343928
H      2.511211   -1.178968    1.763288
H      2.715004   -1.723958    0.101370
H     -1.758949   -0.354353    1.367465
H     -2.126811    0.621774   -0.055502
H      6.536871    1.614948    0.308507
H      6.512014    1.456898   -1.522585
H      4.513590   -1.355403   -0.595313
H      4.600034    0.193146   -1.425856
H      2.582515    0.778083   -0.622652
H      2.257907    1.168173    1.103437
H      0.623442   -2.281620    0.816617
H      0.201097   -0.709014    1.481075
H     -1.486496   -2.384368   -0.310007
H     -1.800827   -1.214443   -1.600719
H     -5.777395    2.788507   -0.098372
H     -6.466386    2.254638    1.457311
H     -3.991760   -0.782441   -0.642292
H     -3.718831   -1.898509    0.706228
H     -3.806710    1.669740    0.120192
H     -4.214253    2.055883    1.795710
H     -8.872465   -1.908987   -1.675187
H     -7.738514    2.176024   -1.422715
H      8.737567    0.578919    0.396079
H      4.548108    1.541760    0.536146
H      0.522044   -1.648035   -1.432229
H     -8.925027    0.512374   -3.615239
