35

C     -4.864698    0.001388    2.424396
C      5.125617   -0.005886   -1.380082
C     -1.474614    1.626287   -0.355822
C     -1.662024   -0.747833   -0.359026
C     -0.238869    1.487169   -1.002850
C     -0.425411   -0.869269   -1.005408
C      3.888338   -0.014689   -2.029456
C      3.988810    0.343199    0.663406
C     -4.333677   -0.258663    1.027473
C      5.176227    0.175338   -0.014510
C     -2.195153    0.473465   -0.031623
C      0.279713    0.265445   -1.324145
C      2.724224    0.152609   -1.336131
C     -5.525292   -0.301662    0.116439
C      6.449846    0.196706    0.732145
F      6.271310   -0.470181    1.932220
F      7.504887   -0.293347   -0.003362
F      6.696959    1.527609    1.080849
N      2.819119    0.328291    0.001082
O     -5.535527    0.468350   -0.876718
O     -6.590706   -1.145399    0.325113
O     -3.400364    0.679058    0.596763
O      1.486700    0.144809   -1.960526
H     -5.771872   -0.660843    2.545285
H     -4.108698   -0.221116    3.210117
H     -5.251534    1.040311    2.470779
H      6.029214   -0.139396   -1.938062
H     -1.849004    2.607346   -0.117710
H     -2.204181   -1.655811   -0.121331
H      0.293120    2.423424   -1.235193
H     -0.050080   -1.872779   -1.242328
H      3.862993   -0.162483   -3.086689
H      4.026109    0.490534    1.756853
H     -3.894182   -1.285346    0.957277
H     -7.247302   -1.426271   -0.419223
