47

C      2.451254   -3.397710   -0.422523
C      4.950884   -3.248403   -0.286020
C     -5.883478    3.524051   -2.383990
C     -5.606495    2.204841   -2.794518
C     -5.622775    3.916448   -1.120048
C     -0.852598    2.120202    0.515750
C     -0.227685    1.175184    1.195299
C     -5.055982    1.349829   -1.835909
C     -5.073446    3.056445   -0.166888
C     -2.219541    2.055093    0.195770
C     -2.208165   -0.044207    1.347202
C      4.446573   -0.081455   -0.633167
C     -0.837336   -2.150224    2.762920
C     -0.879425    0.003976    1.663296
C     -4.799904    1.747564   -0.584767
C     -2.870543    0.931822    0.641746
C      3.553459   -1.082463   -0.294641
C     -0.102846   -1.020552    2.346842
C      5.654060    0.315343   -0.969530
C      3.522310   -1.653275    1.140059
C      2.293524   -1.354153    1.880567
C      3.661318   -2.514149   -0.076682
Cl     6.989397   -0.849130   -1.129507
Cl     6.081128    1.973504   -1.329197
N     -1.465513   -3.130310    3.101988
O      2.480209   -0.973610    3.119357
O     -4.243122    0.841956    0.332938
O      1.006836   -1.406320    1.474497
H      1.520198   -3.087833    0.042286
H      2.711765   -4.397307    0.003586
H      2.379564   -3.568975   -1.520258
H      5.736363   -2.922911    0.413184
H      5.293673   -3.169330   -1.311220
H      4.737723   -4.345986   -0.060028
H     -6.325169    4.224884   -3.121393
H     -5.818354    1.946797   -3.785341
H     -5.846070    4.953857   -0.820951
H     -0.339452    3.028190    0.159962
H      0.840768    1.256714    1.434485
H     -4.857528    0.324288   -2.198348
H     -4.865288    3.368160    0.828634
H     -2.666623    2.846835   -0.351277
H     -2.794562   -0.918471    1.677851
H      3.857015    1.032218   -0.606749
H      2.401504   -0.775473   -0.584846
H      0.404178   -0.582752    3.282137
H      4.488201   -1.523203    1.715798
