48

C     -4.830213    3.126240   -0.231336
C      6.141323   -0.185846    0.998064
C     -3.357047    3.003895   -0.579686
C      5.005722    0.232704    0.075994
C     -1.278536   -1.965512   -0.213508
C     -2.446513   -2.844835    0.183804
C     -3.514061    0.533151   -0.212459
C     -1.364412    1.619103   -0.130102
C      3.479672   -1.759710    0.673141
C     -2.819204    1.803539    0.160949
C      3.685024   -0.295737    0.544296
C     -1.499540   -0.726766    0.605979
C     -2.987407   -0.575909    0.638224
C     -0.787134    0.450899    0.082980
C     -3.567205   -1.878080    0.229427
C      0.633203    0.314088   -0.214136
C      2.953464   -1.172984   -1.756208
C      2.708955   -0.916143   -0.339223
N      1.276730   -0.784476   -0.037738
O     -4.726288   -2.086756   -0.013336
O      1.380803    1.393921   -0.716119
O      4.092386   -1.376086   -2.201530
O      1.907763   -1.199389   -2.667135
H     -5.114701    4.201720   -0.080758
H     -5.078301    2.596335    0.713811
H     -5.481238    2.710660   -1.020116
H      7.095938   -0.006645    0.461452
H      6.108838    0.463462    1.917797
H      6.101157   -1.241862    1.269374
H     -2.852799    3.910990   -0.188040
H     -3.178855    2.945094   -1.666317
H      4.998520    1.371852    0.150815
H      5.225697    0.012546   -0.960017
H     -1.351356   -1.786089   -1.305708
H     -0.353959   -2.517065    0.068311
H     -2.317555   -3.273062    1.200491
H     -2.636499   -3.646646   -0.560119
H     -3.367304    0.318167   -1.301633
H     -4.594985    0.653519    0.023409
H     -0.750195    2.418623   -0.516257
H      2.933551   -2.182084    1.526009
H      4.196223   -2.475197    0.219743
H     -2.942266    1.980770    1.248413
H      3.348568    0.261053    1.472145
H     -1.150552   -0.948608    1.639195
H     -3.344624   -0.388172    1.686391
H      2.378812    1.404739   -0.714229
H      2.040401   -1.493412   -3.638318
