41

C     -6.496730   -1.593598    0.154218
C     -3.454108    2.611597   -1.295006
C     -6.231997   -0.435426    1.082041
C      7.377465    0.936892   -0.591890
C     -0.569678    0.399917    1.554736
C     -0.780342   -0.346534   -0.673775
C      0.611426   -0.293329    1.653171
C      0.428602   -1.051196   -0.560500
C      6.010206    1.145663   -0.544729
C      7.055907   -1.318661    0.202315
C     -3.321086    1.173017   -0.813583
C      7.896846   -0.289437   -0.220052
C     -1.308476    0.384697    0.352598
C      1.129344   -1.023335    0.613818
C      5.207873    0.109076   -0.123194
C      5.691366   -1.125846    0.254665
C     -4.682497    0.614365   -0.510517
C      3.551943   -1.173717    0.455730
Cl     9.613693   -0.554399   -0.278335
N      3.885354    0.042727    0.013586
O     -5.583564    0.599101   -1.378250
O     -4.967610    0.103162    0.740994
O     -2.484331    1.088611    0.289519
O      2.298779   -1.697642    0.742003
O      4.660854   -1.861808    0.593757
H     -7.303804   -1.334478   -0.589333
H     -5.603735   -1.928542   -0.398856
H     -6.921476   -2.466114    0.720854
H     -4.125792    2.632878   -2.157339
H     -2.431226    2.896038   -1.657766
H     -3.754418    3.301923   -0.498795
H     -7.006165    0.348553    0.957815
H     -6.165472   -0.778676    2.140785
H      8.005430    1.765456   -0.927677
H     -0.973394    0.967738    2.361835
H     -1.310096   -0.390140   -1.618858
H      1.168452   -0.265322    2.601516
H      0.815238   -1.616259   -1.387438
H      5.574810    2.111237   -0.835223
H      7.457979   -2.295678    0.499573
H     -2.965569    0.607488   -1.689263
