48

C     -4.755305    0.572876   -2.183763
C      5.880684    0.760463    0.668807
C     -3.322455    0.685093   -1.707269
C      4.574781    1.247114    1.132643
C     -1.466648    0.032314    2.327346
C     -2.592854    0.985457    2.040331
C     -3.442052   -1.454221   -0.391800
C     -1.295538   -0.523864   -1.099961
C      3.296737    1.330586   -1.005267
C     -2.722966   -0.662075   -1.438844
C      3.327139    0.891054    0.486495
C     -1.577765   -1.006348    1.239166
C     -3.035792   -1.104197    1.000892
C     -0.753554   -0.669914    0.077635
C     -3.662957    0.147736    1.476748
C      0.687261   -0.509165    0.297422
C      3.595851   -1.247519   -0.998466
C      2.906720   -0.042974   -0.519765
N      1.436938   -0.217611   -0.687647
O     -4.838612    0.455475    1.425605
O      1.276825   -0.661745    1.541020
O      4.836023   -1.318205   -0.976614
O      2.930039   -2.357129   -1.493482
H     -4.886374   -0.230209   -2.932598
H     -4.992629    1.530866   -2.694431
H     -5.459804    0.494012   -1.329395
H      6.184676   -0.253088    1.055358
H      6.654287    1.422552    1.208661
H      6.138409    0.934365   -0.386663
H     -2.749971    1.138008   -2.545871
H     -3.283551    1.385249   -0.874679
H      4.650083    2.389469    1.143233
H      4.540914    1.035767    2.256746
H     -0.533768    0.601285    2.287971
H     -1.596810   -0.462306    3.315659
H     -2.894731    1.500019    2.980418
H     -2.256566    1.697735    1.269272
H     -4.538543   -1.377409   -0.462837
H     -3.206326   -2.546654   -0.538829
H     -0.621370   -0.271551   -1.928178
H      4.255926    1.431514   -1.524295
H      2.574442    2.108200   -1.220802
H     -2.802928   -1.238028   -2.406884
H      2.430278    1.321319    1.092758
H     -1.156626   -1.955816    1.680739
H     -3.431433   -1.925200    1.667701
H      2.234077   -1.010733    1.634763
H      3.465837   -3.052567   -1.993920
