27

C      4.481353    0.374401    0.097153
C     -4.490898    0.572425   -0.040813
C      4.143946   -0.781646    0.774330
C      3.524263    1.274867   -0.342739
C     -3.454517    1.477781   -0.126450
C     -4.201810   -0.776194   -0.029834
C      2.811255   -1.062188    1.028453
C      2.196465    0.968367   -0.074303
C     -2.153099    1.015311   -0.199163
C     -2.889933   -1.222026   -0.103571
C      1.854360   -0.178622    0.598094
C     -1.840875   -0.329521   -0.189739
C      0.424242   -0.464243    0.862046
C     -0.421280   -0.759398   -0.270705
O      0.012981   -1.774650    0.606811
H      5.515214    0.622442   -0.117156
H     -5.497210    0.923684    0.015541
H      4.931523   -1.449522    1.095027
H      3.746831    2.172698   -0.865843
H     -3.644597    2.554728   -0.137801
H     -4.993623   -1.506186    0.036442
H      2.523512   -1.975699    1.565058
H      1.437814    1.649782   -0.404719
H     -1.352962    1.743209   -0.265883
H     -2.685337   -2.290473   -0.093327
H      0.023287    0.029551    1.768598
H     -0.000905   -0.808876   -1.299738
