52

C      5.971600    0.084227    2.619677
C      5.042323   -1.793777    1.144011
C      3.070664   -0.079835   -2.665557
C      4.356218    1.928070   -1.830004
C     -8.032333   -0.178698   -0.075257
C     -7.595094   -0.584321    1.155746
C     -7.191358    0.524136   -0.913700
C     -1.961179   -2.193596    1.472826
C     -1.211898   -2.069753    0.326010
C     -6.305065   -0.272382    1.526027
C     -5.893480    0.844814   -0.555952
C     -2.946426   -1.286793    1.758936
C      4.291640    0.528845    0.944147
C     -2.440264   -0.113378   -0.260925
C     -0.649426   -0.894561   -1.782478
C      5.058374   -0.353222    1.533356
C     -1.450296   -1.027296   -0.544923
C     -5.456415    0.436567    0.680581
C     -3.184801   -0.253244    0.897989
C      3.339447    0.214403   -0.151916
C      2.307236    1.205371   -0.529989
C      0.919241    0.772767   -0.837346
C      3.420264    0.814280   -1.474521
O     -0.064572    1.496275   -0.532513
O      0.642461   -0.430787   -1.465535
O     -4.184789    0.690192    1.162034
H      6.096911    1.191018    2.630865
H      6.928476   -0.459872    2.587584
H      5.506276   -0.170068    3.604533
H      6.024726   -2.255268    1.320290
H      4.786509   -1.911155    0.058838
H      4.301061   -2.299735    1.800680
H      2.430808    0.451215   -3.383132
H      4.052514   -0.242433   -3.199019
H      2.713924   -1.062893   -2.360898
H      4.979113    2.264946   -0.979074
H      3.731764    2.809713   -2.123707
H      4.965777    1.674387   -2.722847
H     -9.032454   -0.400344   -0.405988
H     -8.256295   -1.133008    1.806524
H     -7.517744    0.860286   -1.904744
H     -1.753413   -3.008335    2.124736
H     -0.420813   -2.803570    0.102808
H     -5.982669   -0.607925    2.512502
H     -5.234807    1.390666   -1.202635
H     -3.554148   -1.372288    2.672132
H      4.335369    1.562435    1.257824
H     -2.651960    0.725929   -0.942766
H     -1.122272   -0.211894   -2.513871
H     -0.515684   -1.917011   -2.221859
H      2.961384   -0.843269   -0.089575
H      2.375576    2.182328   -0.029925
