50

C     -5.050160    1.741534    0.549730
C      5.706198    2.949659    1.381132
C     -3.724744    1.274551    1.060840
C      5.121825    0.265433    0.986264
C      4.865817   -1.078690    0.803772
C      1.227177   -2.343187   -0.758998
C     -3.355241   -1.165452   -1.785928
C      2.217233   -3.255701   -0.405508
C     -2.518687   -2.073162   -0.889785
C     -1.810839    0.725200   -1.466402
C      2.982793    0.762471    0.138106
C     -1.977744   -0.498853    0.810537
C     -3.303586    0.017265    0.338294
C     -3.206194    0.228140   -1.158957
C      4.176919    1.211486    0.653548
C      1.465937   -0.999863   -0.584587
C      2.689040   -0.560174   -0.058653
C      3.637887   -1.498078    0.276227
C     -0.870056   -0.470813   -1.313778
C      0.497205    0.047941   -0.931905
N      3.382260   -2.811659    0.096733
N     -1.432904   -1.319218   -0.283033
O      0.980652    0.873951   -1.966361
O      4.457137    2.555300    0.846105
H     -5.584139    0.856347    0.116408
H     -4.991799    2.578460   -0.165644
H     -5.724674    2.095201    1.377845
H      5.829725    2.640724    2.445961
H      5.882273    4.045284    1.238859
H      6.532428    2.451415    0.824043
H     -2.936885    2.053729    1.051800
H     -3.865139    0.988477    2.130617
H      6.082022    0.547183    1.396081
H      5.586764   -1.837054    1.055412
H      0.286290   -2.674559   -1.166936
H     -3.001505   -1.179644   -2.828175
H     -4.404877   -1.490520   -1.772169
H      2.041392   -4.317465   -0.538094
H     -2.075920   -2.837834   -1.561831
H     -3.157086   -2.564176   -0.128901
H     -1.750809    1.161700   -2.487355
H     -1.537428    1.516290   -0.732443
H      2.249792    1.499952   -0.118432
H     -2.132390   -1.149929    1.676302
H     -1.282823    0.304606    1.084689
H     -4.083682   -0.752581    0.538680
H     -3.996013    0.895717   -1.550254
H     -0.875861   -0.986500   -2.282659
H      0.363367    0.703267   -0.050513
H      0.389048    0.873830   -2.742181
