42

C     -3.743577   -0.126743    0.550909
C     -3.557327   -1.272715   -0.385920
C      4.124387   -0.276943   -0.292383
C     -3.094359    1.112504    0.005102
C      2.760419   -0.596030   -0.871748
C      4.165482    0.967113    0.523162
C     -2.564957   -1.051241   -1.460642
C     -0.408237   -0.714295    1.199967
C     -0.174143   -0.782288   -1.281072
C      0.429204    1.554180    0.862977
C      0.467308   -1.148045    0.013345
C     -0.803412    0.694342    0.933496
C     -1.638736    0.859524   -0.309694
C      1.790299   -0.535354    0.258885
C      2.864585    1.573013    0.826687
N     -1.473107   -0.229073   -1.185996
N      1.652387    0.852743    0.647365
O      2.840807    2.752291    1.252422
H     -3.359607   -0.322740    1.583231
H     -4.833363    0.043671    0.670406
H     -3.217289   -2.152652    0.229327
H     -4.523625   -1.605445   -0.835377
H      4.919705   -0.325829   -1.067079
H      4.357574   -1.135349    0.404759
H     -3.585392    1.393064   -0.949276
H     -3.197577    1.957494    0.709008
H      2.835027   -1.626204   -1.291632
H      2.571794    0.142551   -1.671551
H      4.758875    1.726452   -0.053359
H      4.745271    0.837789    1.479613
H     -3.120232   -0.661673   -2.363232
H     -2.193324   -2.062908   -1.797930
H     -1.233968   -1.414505    1.361239
H      0.212571   -0.728021    2.119834
H     -0.216317   -1.641093   -2.003869
H      0.485054   -0.027407   -1.794494
H      0.527347    2.143881    1.797506
H      0.298330    2.317922    0.044210
H      0.586530   -2.263436    0.038216
H     -1.435450    1.034064    1.802337
H     -1.281093    1.790701   -0.830329
H      2.262139   -1.053308    1.131576
