81

C      5.593245   -0.274659   -2.241104
C     -5.196969    2.694204   -0.646248
C     -4.758506    1.514296    1.470447
C     -3.890579   -1.695994    0.959059
C      5.047030   -0.754667    0.384832
C      2.162123   -0.646519    2.155769
C     -0.683647   -1.780754    1.263950
C     -1.138034    0.501010   -1.782658
C      4.543632    2.423151    0.204891
C      3.765438    1.474248    1.135614
C      1.984769   -2.065234   -0.423175
C      3.255938   -1.535215   -1.056715
C     -5.361725    0.210118   -0.599008
C     -4.435126   -0.807160   -1.200964
C     -2.409477   -2.148002   -1.008980
C      0.730090    1.059194    1.283136
C     -0.939313   -1.989343   -1.108762
C     -0.368918    1.348819    0.345666
C     -3.212000    1.301847   -0.511207
C      4.495430    0.497388   -1.584764
C      5.043337    1.731222   -0.987085
C      2.941614    0.624730    0.238963
C      1.109386   -0.877207   -0.158149
C     -2.519022    0.109026    0.117609
C     -4.661243    1.403209   -0.009815
C     -3.222547   -1.116590   -0.304836
C      3.835617   -0.331785   -0.459096
C      1.710414   -0.004987    0.878361
C     -0.346018   -1.135802   -0.031229
C     -1.054396    0.200764   -0.284487
O      6.024792    2.227275   -1.554988
H      5.302652   -1.324856   -2.444305
H      6.493699   -0.196441   -1.592662
H      5.849633    0.236522   -3.188204
H     -4.902399    3.574796   -0.071457
H     -6.293655    2.580322   -0.771682
H     -4.780837    2.721677   -1.690787
H     -5.396254    2.405963    1.745644
H     -5.330720    0.644154    1.876432
H     -3.801412    1.683476    1.992334
H     -4.967269   -1.661720    0.964077
H     -3.491766   -1.246767    1.872809
H     -3.619872   -2.793366    0.997342
H      5.493212   -1.644382   -0.151810
H      4.792825   -1.095754    1.377921
H      5.855202    0.011104    0.350194
H      3.009320   -0.005297    2.555906
H      2.576845   -1.645112    2.086269
H      1.402901   -0.523644    2.990009
H      0.287075   -2.179155    1.695276
H     -1.233241   -2.768073    1.150673
H     -1.107072   -1.138120    2.030248
H     -1.391817    1.605049   -1.825957
H     -1.881952   -0.101628   -2.295926
H     -0.216208    0.422283   -2.336226
H      3.903906    3.310681   -0.027252
H      5.414162    2.816539    0.782007
H      3.261693    2.048939    1.900503
H      4.589310    0.910500    1.666068
H      2.152033   -2.726498    0.421931
H      1.513136   -2.717553   -1.218405
H      3.000120   -1.314012   -2.135245
H      4.020903   -2.345965   -1.120083
H     -5.997530    0.569582   -1.463215
H     -6.067659   -0.169804    0.135724
H     -4.197843   -0.633573   -2.237055
H     -5.015527   -1.781305   -1.184179
H     -2.665897   -3.141111   -0.524549
H     -2.776037   -2.314388   -2.069722
H      0.276148    0.851976    2.298567
H      1.285671    2.028697    1.453471
H     -0.585182   -1.666636   -2.132058
H     -0.477993   -3.015650   -0.990627
H      0.008684    2.112230   -0.398601
H     -1.147944    1.929310    0.923912
H     -2.690905    2.244581   -0.389702
H     -3.351067    1.140771   -1.621951
H      3.694724    0.814006   -2.302273
H      2.492486    1.324593   -0.532977
H      1.199830   -0.282679   -1.122483
H     -2.533443    0.289154    1.220105
