42

C      3.871217   -0.290810   -0.066844
C     -3.266148   -1.108737   -0.986661
C     -0.829999    2.967955    0.191953
C     -1.798167   -1.553120   -1.044643
C      0.277425    2.086610   -0.402447
C      2.678015    0.580144    0.038890
C      3.767260   -1.632841    0.571977
C     -3.240335    0.298305   -0.439309
C     -2.129543    2.312686   -0.210545
C     -0.020281   -2.032915    0.525651
C     -1.223319   -1.194895    0.322761
C      0.300416    0.820327    0.431537
C      1.351454   -0.087630   -0.150220
C      2.380934   -2.034003    0.900935
C     -1.076129    0.262094    0.469916
N     -1.924439    0.904063   -0.555010
N      1.231257   -1.374325    0.419719
O      2.279655   -3.049453    1.674199
H      4.172735   -0.428821   -1.136740
H      4.726825    0.241507    0.406017
H     -3.735296   -1.785492   -0.225774
H     -3.757257   -1.180010   -1.961214
H     -0.741069    2.900431    1.298995
H     -0.754355    3.996899   -0.190391
H     -1.709337   -2.625113   -1.267730
H     -1.272826   -0.942841   -1.817539
H      1.195412    2.671662   -0.325107
H     -0.043270    1.877620   -1.448832
H      2.636970    1.122605    1.014243
H      2.760694    1.378587   -0.739550
H      4.188746   -2.433935   -0.071672
H      4.342039   -1.679562    1.527452
H     -3.465345    0.270508    0.665067
H     -4.038676    0.926044   -0.880139
H     -2.492256    2.817440   -1.126453
H     -2.885113    2.418707    0.590259
H      0.008511   -2.910679   -0.188117
H     -0.038427   -2.538148    1.538599
H     -2.013067   -1.574314    1.040235
H      0.671866    1.127816    1.438219
H      1.155807   -0.120829   -1.255436
H     -1.542582    0.596461    1.423747
