31

C     -4.071097   -0.791496    0.089493
C      3.002543   -1.612555   -0.809645
C     -2.681379   -0.809553    0.641910
C      0.602303    0.324287   -0.911560
C      2.473598    1.816514    0.085848
C     -0.446549    0.822217    1.287617
C      4.087435    0.388032    0.116849
C     -0.306874   -0.204443    0.185517
C      1.964485    0.639414   -0.421759
C     -1.739760   -0.193860   -0.366243
C     -2.000108    1.280551   -0.359912
N      3.771843    1.652722    0.412183
N      3.014726   -0.228489   -0.382749
O     -2.623572    1.951770   -1.236319
O     -1.411213    1.741296    0.809217
H     -4.755476   -0.118953    0.636966
H     -4.096097   -0.504386   -0.996397
H     -4.490455   -1.816807    0.135802
H      3.339106   -1.693713   -1.870019
H      3.723755   -2.220011   -0.220992
H      1.986275   -2.038406   -0.684832
H     -2.667289   -0.144821    1.542607
H     -2.334280   -1.802401    0.942718
H      0.173076    1.304068   -1.267919
H      0.605118   -0.330717   -1.792388
H      1.931739    2.733604    0.208121
H     -0.810022    0.340095    2.232757
H      0.487378    1.351442    1.522224
H      5.097882   -0.011407    0.287662
H     -0.022576   -1.194844    0.530057
H     -1.804515   -0.629150   -1.361991
