60

C      5.995952    3.525444   -0.498466
C      6.543802    2.117846   -0.314669
C      5.393471    1.157205   -0.686023
C      5.872366   -0.262410   -0.524543
C      4.782187   -1.216269   -0.904663
C      3.587744   -0.987364    0.006617
C      2.500506   -1.961325   -0.354881
C      1.322182   -1.753531    0.562314
C      0.735885   -0.381821    0.470446
C     -0.428689   -0.269942    1.421955
C     -1.475123   -1.282744    1.049443
C     -2.650046   -1.110478    2.030516
C     -3.697096   -2.097417    1.655274
C     -4.310295   -1.904696    0.321851
C     -5.173953   -0.749346    0.100203
C     -3.985095    1.044735   -2.126635
C     -3.700796    1.178004   -0.650601
C     -4.787575    0.650717    0.216412
N     -3.646122    2.635681   -0.385385
O     -5.197910    1.667069   -2.387681
O     -5.971688    1.385350   -0.209467
H      4.948185    3.514427   -0.174088
H      6.059774    3.742497   -1.603885
H      6.581977    4.236045    0.088227
H      6.805355    1.903999    0.730464
H      7.366321    1.897324   -1.019303
H      5.031918    1.324097   -1.698788
H      4.593481    1.419115    0.039371
H      6.127697   -0.480525    0.547531
H      6.794042   -0.407274   -1.128760
H      5.112802   -2.280957   -0.812900
H      4.507358   -0.993195   -1.959390
H      3.208983    0.052918   -0.154413
H      3.848628   -1.141489    1.068418
H      2.922899   -2.985052   -0.145121
H      2.196666   -1.900683   -1.409285
H      0.581307   -2.546610    0.250221
H      1.563790   -2.011430    1.616386
H      0.342954   -0.218550   -0.576770
H      1.480558    0.418484    0.692639
H     -0.834026    0.761931    1.449232
H     -0.054460   -0.523833    2.449088
H     -1.086778   -2.324759    1.266743
H     -1.752186   -1.241937    0.009356
H     -2.954425   -0.066421    2.096066
H     -2.224929   -1.351332    3.065448
H     -4.489956   -2.040744    2.463966
H     -3.269959   -3.148289    1.742281
H     -3.517475   -2.023308   -0.480433
H     -4.944513   -2.856943    0.123704
H     -6.095483   -0.860157    0.805540
H     -5.732981   -0.898300   -0.914562
H     -4.005755   -0.006600   -2.431468
H     -3.168782    1.601051   -2.654539
H     -2.714124    0.819530   -0.397167
H     -4.671943    1.006712    1.241987
H     -4.553981    3.084477   -0.592667
H     -3.368254    2.793912    0.610972
H     -5.606461    1.369188   -3.231143
H     -6.737933    0.977972    0.235028
