73

C      7.385499    1.889586   -1.892898
C      3.570900    1.189472    1.576465
C     -3.949515   -0.148069    1.924170
C      0.616042   -0.772247    1.761256
C     -3.469415   -2.419869   -0.315749
C     -2.189620   -2.004004   -1.014567
C      6.353830   -0.238112   -1.061648
C     -6.049567    0.981850    0.399773
C     -4.595768    1.186009    0.014416
C      5.310729   -0.717599   -0.043273
C     -5.761489   -1.497196    0.098341
C      0.778453   -1.474454   -1.101772
C     -1.728971    1.142338    1.101326
C      4.965935    1.764984   -1.263511
C      6.352918    1.258459   -0.990850
C      3.059722    0.107619    0.710926
C     -4.362803   -1.197597   -0.322311
C     -6.609401   -0.292490   -0.142413
C     -1.502107   -1.020588   -0.099659
C     -2.361814    0.235290    0.092379
C     -0.213663   -0.522139   -0.593241
C      1.996912   -0.548300   -1.251491
C     -0.276419    1.353498    0.886869
C      1.837491    0.433189   -0.077252
C     -3.766850   -0.044168    0.422910
C      0.541633    0.146581    0.566718
C      3.992526   -0.194726   -0.477704
O     -7.893538   -0.458254    0.345499
O      0.174041    2.477176    0.979511
O      4.013027    0.808697   -1.395768
O      3.181218   -1.212561   -1.050137
H      7.739525    2.827176   -1.414528
H      6.827523    2.227700   -2.814621
H      8.223596    1.227987   -2.133091
H      3.061182    2.176220    1.404057
H      3.379061    0.952475    2.645596
H      4.686707    1.340208    1.519580
H     -3.851079    0.912041    2.306664
H     -5.013166   -0.416217    2.182818
H     -3.233176   -0.827285    2.402472
H      0.702511   -1.832865    1.502677
H     -0.333400   -0.648583    2.361819
H      1.414366   -0.408631    2.440144
H     -3.210746   -2.637365    0.739426
H     -3.996889   -3.230228   -0.821675
H     -2.389006   -1.581235   -2.018381
H     -1.552090   -2.886875   -1.096034
H      7.333457   -0.696721   -0.881733
H      5.930320   -0.526092   -2.061339
H     -6.610328    1.821811   -0.087227
H     -6.206866    1.104510    1.489004
H     -4.564873    1.306675   -1.090891
H     -4.234751    2.098788    0.501242
H      5.655342   -0.360588    0.946379
H      5.358301   -1.835807   -0.097984
H     -6.142458   -2.301558   -0.598375
H     -5.849475   -1.930807    1.106142
H      0.991179   -2.343399   -0.486676
H      0.528914   -1.833859   -2.139221
H     -2.254719    2.108016    1.114727
H     -1.829036    0.718904    2.133898
H      5.029424    2.316182   -2.250101
H      4.671935    2.578008   -0.535653
H      6.601063    1.538670    0.061878
H      2.979076   -0.892284    1.231289
H     -4.416469   -0.877025   -1.406252
H     -6.682406   -0.165660   -1.262552
H     -1.458683   -1.520225    0.905803
H     -2.321865    0.763326   -0.896730
H     -0.388880    0.267867   -1.352252
H      1.987346   -0.027155   -2.214614
H      1.919784    1.473883   -0.428121
H     -7.880191   -0.192357    1.306121
