28

C     -1.843419    1.014336    1.480577
C     -1.582129   -0.553450   -1.026527
C     -1.176463    0.877002   -1.223612
C      0.139656   -1.734065    0.352470
C     -1.115909   -0.896081    0.359891
C     -0.100651    1.029681   -0.168049
C      1.160480   -1.125422   -0.534438
C      1.129622    0.355773   -0.648218
C      2.333504    0.960139   -0.006194
N     -0.689670    0.370295    0.964508
O      2.430199   -1.513763   -0.047041
O      3.261791    1.506018   -0.650859
O      2.490628    0.947069    1.389691
H     -2.714791    1.012864    0.781749
H     -1.619567    2.055214    1.835763
H     -2.179248    0.462117    2.383274
H     -2.662211   -0.627968   -1.163498
H     -1.007490   -1.159295   -1.776289
H     -2.003004    1.597013   -1.097710
H     -0.712307    1.074805   -2.209776
H      0.532597   -1.735530    1.403295
H     -0.055650   -2.788994    0.087514
H     -1.938364   -1.349731    0.932714
H      0.107602    2.090703    0.078540
H      1.085949   -1.643324   -1.536632
H      1.229067    0.596549   -1.749558
H      2.424427   -2.504543   -0.028061
H      3.075352    1.682588    1.816475
