28

C      2.113026    0.728565    1.157864
C      1.369000   -1.406462   -0.534185
C      1.118238   -0.279080   -1.483562
C     -0.867742   -1.295896    0.586824
C      0.607337   -0.995921    0.699606
C      0.511143    0.812775   -0.629997
C     -1.526264   -0.619045   -0.565987
C     -1.012715    0.781858   -0.797680
C     -1.575447    1.639938    0.278524
N      0.770376    0.432098    0.748416
O     -2.895346   -0.526791   -0.290953
O     -2.268479    2.645593   -0.018808
O     -1.357336    1.362262    1.604743
H      2.799659    0.760016    0.283385
H      2.457798    0.019217    1.939694
H      2.101012    1.741680    1.629439
H      1.090436   -2.396989   -0.918824
H      2.454977   -1.468752   -0.256237
H      2.043726    0.125064   -1.937080
H      0.384081   -0.600704   -2.252050
H     -1.336712   -0.975282    1.543980
H     -1.049565   -2.398658    0.509178
H      0.983972   -1.452684    1.615021
H      0.887158    1.808784   -0.883454
H     -1.437600   -1.248447   -1.483968
H     -1.255069    1.140084   -1.794312
H     -3.357978   -0.251169   -1.120963
H     -1.751686    1.917948    2.371386
