27

C     -2.014348    1.420679    0.779776
C     -2.742252   -0.741871   -0.192116
C      3.284409    0.120806   -0.514119
C      0.212447   -1.328901   -0.786574
C      0.167321   -0.146439    1.496226
C     -1.691030    0.349234   -0.247011
C      1.932370    0.443932    0.045788
C      0.794954    0.024347   -0.841192
C      1.629984   -0.253038    1.312271
C     -0.353728   -0.230902    0.086036
O      2.396249   -0.803523    2.061021
H     -1.141206    2.136021    0.773814
H     -2.139523    0.959775    1.779424
H     -2.928227    1.997318    0.471199
H     -2.449608   -1.545556    0.528888
H     -3.717254   -0.329968    0.089652
H     -2.825306   -1.250875   -1.186452
H      3.736998    1.079752   -0.885260
H      3.156772   -0.587216   -1.354401
H      3.958566   -0.371652    0.225023
H      0.670736   -2.154603   -0.230498
H     -0.439782   -1.614189   -1.623184
H     -0.245593   -0.950697    2.135562
H     -0.057381    0.856371    1.941179
H     -1.698591    0.767459   -1.257740
H      1.833808    1.537670    0.238861
H      0.669215    0.616064   -1.759073
