100

C      3.759401    0.225922    2.869365
C     -0.700128    2.014782    0.422005
C      2.699234   -0.620100    2.737712
C     -0.095363    0.965113    1.070531
C      4.434833    0.734232    1.757970
C     -2.023703    1.988863    0.080090
C     -0.127559   -3.369362   -0.235111
C     -0.638308   -3.403533    3.364237
C      0.249649   -3.321649   -2.558706
C     -2.797433   -4.417368    3.472092
C      6.388910    3.957595   -3.335932
C     -6.960842    4.461957    0.188165
C     -0.437896   -3.854574   -1.482468
C     -1.472546   -4.388643    3.802177
C      2.245034   -1.012926    1.464251
C     -0.781865   -0.193741    1.421746
C      0.821762   -2.385819    0.032557
C     -1.066155   -2.351498    2.549307
C      1.184940   -2.364281   -2.361168
C     -3.260550   -3.398854    2.671610
C      4.022287    0.372387    0.506598
C     -2.743636    0.867050    0.410328
C      6.477996    3.591552   -1.841514
C     -6.607907    3.135044   -0.432229
C      1.088379   -1.880440    1.368318
C     -0.165133   -1.335977    2.055714
C      1.471890   -1.898026   -1.071293
C     -2.396620   -2.385579    2.225092
C      2.921231   -0.506248    0.393724
C     -2.114430   -0.187955    1.068285
C      7.844521    3.190910   -1.519413
C     -7.732374    2.153687   -0.372391
C      2.568447   -0.920599   -0.955362
C     -2.976885   -1.294398    1.460164
C      8.074731    1.790213   -1.072562
C     -7.182979    0.775312   -0.678853
C      6.863083    0.938743   -1.425657
C     -5.879210    0.916772   -1.439234
C     -1.450365   -4.897731   -1.682310
C     -0.976518   -5.484842    4.666271
C      5.708506    1.689273   -0.740869
C     -4.854030    1.667708   -0.622673
O      5.182609    4.594832   -3.620940
O     -5.840119    5.304794    0.057593
O      1.882567   -1.822657   -3.444507
O     -4.596126   -3.380384    2.306844
O      8.412392    4.040797   -0.537761
O     -8.730848    2.426305   -1.307108
O      3.155140   -0.478832   -1.955979
O     -4.201134   -1.335888    1.160162
O      9.243997    1.237824   -1.596466
O     -6.900969    0.136976    0.525903
O      6.978139   -0.351448   -0.938164
O     -6.040786    1.411270   -2.719843
O     -2.079936   -5.399557   -0.716327
O     -1.704936   -5.326304   -2.965635
O      0.233501   -5.496046    4.995520
O     -1.801645   -6.485556    5.115317
O      4.634296    0.828226   -0.651051
O     -4.064535    0.785422    0.097968
O      5.445636    2.758512   -1.577314
O     -5.511664    2.581542    0.236825
H      4.087888    0.515637    3.880833
H     -0.107553    2.907807    0.166759
H      2.181215   -1.022828    3.573272
H      0.923999    1.068973    1.328405
H      5.274074    1.407675    1.908363
H     -2.502658    2.809929   -0.428553
H     -0.658028   -3.807960    0.575250
H      0.386958   -3.411044    3.644026
H      0.025356   -3.683934   -3.548278
H     -3.438120   -5.210369    3.829903
H      7.279681    4.515982   -3.654311
H      6.379658    3.012530   -3.915320
H     -7.761615    4.921831   -0.434082
H     -7.267092    4.375220    1.249735
H      6.249946    4.580546   -1.340109
H     -6.335688    3.375797   -1.499936
H      1.357959   -2.787476    1.998801
H      0.291563   -0.900181    3.030670
H      8.523941    3.353372   -2.410503
H     -8.171690    2.192568    0.650120
H      8.152000    1.767692    0.041329
H     -7.922442    0.199364   -1.270748
H      6.754266    0.992195   -2.527948
H     -5.488946   -0.135581   -1.543792
H      6.084915    2.068443    0.236862
H     -4.293720    2.343737   -1.316977
H      4.897903    4.442754   -4.560345
H     -5.297504    5.034373   -0.743721
H      1.700920   -2.135216   -4.381633
H     -5.262274   -4.063218    2.585665
H      7.977732    3.914836    0.337594
H     -9.333032    3.152140   -1.015709
H      8.984802    0.371627   -2.044286
H     -6.755553    0.765741    1.264991
H      6.930059   -0.960389   -1.746025
H     -6.970369    1.598004   -2.958205
H     -2.488262   -5.895687   -3.234468
H     -1.468263   -7.267693    5.696129
