17

C     -2.131994   -0.836581   -0.076846
C     -0.720423   -0.376490   -0.120457
C     -0.504738    0.938282   -0.071139
C      0.392297   -1.316086   -0.213389
C      0.876343    1.380541   -0.114161
C      1.779481   -0.922473    0.104816
C      2.022799    0.509973    0.189628
O     -1.546605    1.824223    0.016174
O      0.126262   -2.491373   -0.579456
O      1.102090    2.575103   -0.429031
O      2.530116   -0.244319   -0.858050
H     -2.152856   -1.942396   -0.266619
H     -2.703998   -0.290951   -0.846534
H     -2.536706   -0.653467    0.931374
H      2.369575   -1.628018    0.697522
H      2.694668    0.859601    0.992388
H     -1.596312    2.614432    0.643781
