52

C     -4.437011   -1.629127    0.063414
C     -4.523895    1.682673   -0.063157
C      4.489248   -1.538865    0.460412
C      0.442641    1.046677    0.340032
C      5.035566   -0.143002    0.660381
C     -0.478057    0.258083   -0.487654
C     -4.067557   -1.994097   -2.398046
C     -3.927496    1.678764    2.358457
C      3.055626   -1.549601    0.925785
C      1.418906    0.114265    0.976074
C     -3.346270   -1.890471   -3.520625
C     -3.024699    1.435101    3.366489
C      3.035121    0.101061   -0.794318
C     -3.670985   -1.418934   -1.251507
C     -3.597449    1.329831    1.109162
C      4.161700    0.825115   -0.084818
C     -1.787270    0.126088   -0.284077
C     -2.504017   -0.714775   -1.256326
C     -2.384588    0.741818    0.867046
C      4.992146    1.481852   -1.115965
N      2.225664   -0.666821    0.102569
O      5.137575    2.721386   -1.109359
O      5.607631    0.710680   -2.089594
S     -1.934965   -0.878129   -2.963501
S     -1.670774    0.690986    2.524523
Cl     0.689179    0.000000    0.000000
H     -3.811910   -1.458707    0.918952
H     -4.712105   -2.732805    0.102189
H     -5.329060   -1.042191    0.015651
H     -5.515292    1.283186    0.125753
H     -4.599693    2.796430   -0.110064
H     -4.086587    1.355299   -0.999316
H      5.036878   -2.219517    1.156335
H      4.625693   -1.915641   -0.572347
H      1.029083    1.778219   -0.324136
H     -0.074411    1.666922    1.073202
H      6.100176   -0.083101    0.339144
H      4.938501    0.071810    1.757558
H     -0.027334   -0.265030   -1.351239
H     -5.032849   -2.584020   -2.433730
H     -4.918284    2.166684    2.630307
H      2.618100   -2.556234    1.014703
H      3.083129   -1.148682    1.978462
H      2.053877    0.683671    1.714993
H      0.852526   -0.608586    1.633490
H     -3.446740   -2.244023   -4.517713
H     -3.107738    1.643029    4.427541
H      3.495562   -0.562784   -1.569212
H      2.419089    0.820978   -1.332340
H      3.732457    1.597317    0.590081
H      6.430143    1.037216   -2.603661
H     -0.689179    0.000000    0.000000
