52

C     -1.967833   -0.553028    2.750168
C     -4.985524    0.795657   -0.847932
C      4.387557    0.455305   -1.788917
C      0.298973   -0.555764    0.714072
C      5.094786    0.561903   -0.455244
C     -0.598995    0.196909   -0.143306
C     -3.412520   -2.408781    1.958148
C     -4.013540    2.182848   -2.670785
C      3.246784   -0.535175   -1.577120
C      1.466033   -0.979494   -0.176379
C     -4.101557   -2.992830    0.991710
C     -2.935203    2.732197   -3.385318
C      2.684834    1.103358    0.076720
C     -2.678110   -1.321852    1.639719
C     -3.797934    1.340202   -1.658108
C      4.066221    0.784911    0.595928
C     -1.883284    0.109737   -0.349907
C     -2.678210   -0.893830    0.376160
C     -2.526734    1.013328   -1.321821
C      4.039694   -0.312024    1.595714
N      2.187707    0.076869   -0.770802
O      4.823553   -1.285322    1.476982
O      3.154484   -0.272937    2.664118
S     -3.755754   -2.049336   -0.416410
S     -1.573105    1.920127   -2.461879
Cl     0.685526    0.000000    0.000000
H     -2.702462   -0.449883    3.608733
H     -1.160940   -1.169831    3.141975
H     -1.737511    0.465658    2.459894
H     -4.629108    0.642281    0.156761
H     -5.504969    0.023469   -1.385065
H     -5.748173    1.646815   -0.773557
H      3.969255    1.432039   -2.108323
H      5.030721    0.010418   -2.572814
H     -0.224440   -1.528672    0.996709
H      0.587698   -0.062279    1.616205
H      5.898210    1.324459   -0.471996
H      5.559994   -0.449507   -0.266519
H     -0.081765    1.003047   -0.734514
H     -3.465013   -2.832673    2.981483
H     -5.048516    2.496868   -3.007225
H      3.667730   -1.432049   -1.075541
H      2.901647   -0.840753   -2.567502
H      2.146164   -1.572026    0.467380
H      1.111354   -1.659859   -0.976629
H     -4.769180   -3.894518    1.033095
H     -2.848001    3.387595   -4.183885
H      2.035107    1.194596    0.966396
H      2.652820    2.113649   -0.401776
H      4.385482    1.698335    1.180771
H      3.431572   -0.660157    3.569380
H     -0.685526    0.000000    0.000000
