70

C      4.490618    0.478564   -1.567816
C      5.032722   -0.559625   -0.570033
C      3.027782    0.231341   -1.771756
C      6.532612   -0.309690   -0.355325
C     -4.462768    0.130556    1.365919
C     -4.523151    1.625403    1.318455
C     -8.127384   -0.287613   -0.866780
C      2.177276    0.303829   -0.558285
C     -9.387426   -0.900865   -0.280000
C     -4.516515   -0.479973   -0.022280
C     -6.901148   -0.738539   -0.089462
C     -3.370277    2.249010    0.542229
C      6.993226   -1.360895    0.633315
C      2.180483    1.635134    0.051684
C     -1.089621    1.509487    0.512246
C      0.155381    1.162460    1.255621
C      9.410860   -1.580127    0.024338
N     -9.264550   -2.342067   -0.361922
N      9.140459   -2.317514   -1.003655
N     10.708724   -1.062356    0.236529
N     -5.740041   -0.120035   -0.703051
N     -2.127810    1.892853    1.153932
N      8.380287   -1.282813    0.963536
N      1.245292    1.973791    0.862673
O      3.176917    2.612924   -0.191983
O     -1.199305    1.442392   -0.865280
O      0.425032   -0.201044    1.210931
Cl     0.690004    0.000000    0.000000
Cl     0.684694    0.000000    0.000000
Cl     0.689162    0.000000    0.000000
H      4.716715    1.468555   -1.210477
H      5.060754    0.244401   -2.525456
H      4.831163   -1.539933   -0.997597
H      4.507011   -0.480676    0.402026
H      2.682186    0.979100   -2.524870
H      2.879493   -0.786598   -2.244618
H      6.604321    0.711654    0.067640
H      7.074810   -0.331242   -1.296858
H     -3.503192   -0.149958    1.856483
H     -5.269764   -0.220984    2.009902
H     -5.496304    1.994592    0.977987
H     -4.410280    1.985084    2.375741
H     -8.044249   -0.577664   -1.917288
H     -8.218266    0.815424   -0.775937
H      2.499914   -0.468304    0.190147
H      1.134906    0.038318   -0.909519
H    -10.239371   -0.519427   -0.843544
H     -9.438643   -0.601957    0.802729
H     -4.415990   -1.589686    0.038947
H     -3.672609   -0.087213   -0.621600
H     -6.841302   -1.842299   -0.227338
H     -6.997359   -0.525251    0.977014
H     -3.375224    1.912728   -0.502681
H     -3.554655    3.350652    0.556350
H      6.742255   -2.386211    0.266242
H      6.393301   -1.229193    1.554141
H     -0.086855    1.347841    2.354166
H    -10.235098   -2.773477   -0.363358
H     -8.705109   -2.745529    0.405964
H      8.208624   -2.713790   -1.193791
H     11.282911   -1.359024    1.039689
H     11.095583   -0.368614   -0.428243
H     -5.826661    0.917028   -0.718998
H      8.664584   -0.999073    1.922537
H      3.326868    3.296623    0.531048
H     -1.578119    2.232568   -1.393861
H     -0.164025   -0.703055    1.851874
H     -0.690004    0.000000    0.000000
H     -0.684694    0.000000    0.000000
H     -0.689162    0.000000    0.000000
