40

C     -1.780962    3.176654    1.429008
C      3.010045   -2.770054   -0.093502
C     -1.635147   -1.816079    0.728340
C     -1.846616   -0.880682   -1.421239
C     -2.175905   -3.014756    0.271923
C     -2.390836   -2.074135   -1.898678
C      2.525443    1.997661    0.101939
C      1.390511   -0.495500    0.124923
C      0.363729    3.110293    0.332254
C     -1.443402    1.714018   -0.438150
C     -1.461370   -0.732299   -0.105624
C      1.149962    1.865188    0.221755
C     -2.552555   -3.129938   -1.056305
C      0.585401    0.599920    0.232391
C     -0.890741    0.541268    0.363601
C      3.333931    0.900636   -0.005886
C      2.771011   -0.359892    0.004750
N     -1.049410    2.918591    0.224974
O     -3.097940   -4.311182   -1.555518
O      4.710646    1.053831   -0.125156
O      3.585932   -1.482514   -0.104480
H     -2.627804    2.463158    1.596432
H     -2.179707    4.228568    1.375053
H     -1.077007    3.121719    2.292527
H      3.782228   -3.532592   -0.312341
H      2.216306   -2.773031   -0.874019
H      2.541229   -2.940224    0.881107
H     -1.355444   -1.768554    1.768104
H     -1.731101   -0.072674   -2.098520
H     -2.322143   -3.872048    0.896858
H     -2.691124   -2.169861   -2.952120
H      2.985215    2.992964    0.092159
H      0.917571   -1.474547    0.136404
H      0.567774    3.555061    1.342159
H      0.721967    3.846316   -0.421325
H     -0.930966    1.678683   -1.424653
H     -2.539783    1.696499   -0.508482
H     -1.132289    0.637770    1.439283
H     -3.369799   -4.394507   -2.513895
H      5.123150    1.966271   -0.133294
