55

C      4.875538   -0.334883    1.049450
C      3.801314   -2.441095    0.315294
C     -5.204074   -1.996061   -0.414838
C     -4.249609   -2.218831   -1.366721
C     -0.306068    3.652594    1.352099
C     -4.928371   -1.105215    0.585388
C     -1.603924    3.229994    1.533663
C     -3.022625   -1.543013   -1.306748
C      0.573054    2.889822    0.616357
C     -3.647953    0.439447    1.821586
C     -3.510222    1.851691    1.324154
C      2.606362   -1.103755   -1.926031
C      1.096548   -1.157112   -1.867396
C      2.069353    0.143673    0.104437
C     -0.895792    0.172470   -1.843612
C      4.262751   -1.085744   -0.097862
C     -3.728371   -0.444121    0.644327
C     -2.049786    2.028681    0.979834
C     -2.722680   -0.644502   -0.315296
C      0.110377    1.699905    0.074593
C     -1.408572   -0.084300   -0.457316
C      1.117459    0.933854   -0.741862
C     -1.197886    1.248543    0.244693
C      3.185043   -0.311027   -0.794844
N      0.564393    0.179137   -1.810503
O      3.778667    0.853596   -1.300610
H      5.904592   -0.745006    1.203022
H      4.982461    0.734340    0.823131
H      4.309132   -0.460023    1.995241
H      2.738302   -2.414653    0.553809
H      4.041481   -3.172895   -0.504006
H      4.333775   -2.832417    1.208429
H     -6.157351   -2.507999   -0.444604
H     -4.473527   -2.917663   -2.145486
H      0.027076    4.597426    1.794022
H     -5.649015   -0.879578    1.381347
H     -2.305324    3.826768    2.113225
H     -2.356202   -1.829458   -2.111421
H      1.590431    3.231789    0.479848
H     -4.591377    0.384774    2.397905
H     -2.782472    0.207337    2.474833
H     -4.120024    1.966674    0.398917
H     -3.779199    2.570480    2.093683
H      2.958702   -0.676831   -2.889596
H      2.948770   -2.165193   -1.899780
H      0.720385   -1.654730   -2.788022
H      0.763485   -1.723903   -0.995593
H      2.466612    0.835895    0.884664
H      1.601323   -0.735191    0.576392
H     -1.167402    1.235554   -2.122515
H     -1.210768   -0.480959   -2.635769
H      5.096087   -1.219247   -0.849469
H     -0.699848   -0.802524    0.075938
H      1.762799    1.732252   -1.246587
H      3.482168    1.041234   -2.211933
