44

C      4.751700    2.212456   -0.273049
C      3.610590    1.680719    0.092291
C     -4.281779    2.204476    1.194612
C     -5.447523    1.753020    0.578261
C     -3.108423    1.507820    1.049239
C     -5.416954    0.609029   -0.174510
C     -1.941411   -1.472377   -0.616974
C      2.802923   -1.998588   -0.203495
C     -3.112254   -1.902327   -1.220435
C      1.755367   -1.784190   -1.289454
C      1.773030   -0.328623    1.330835
C      1.824997    0.512729   -1.193788
C      3.188936    0.382177   -0.517544
C      3.010659   -0.693332    0.542713
C     -3.062851    0.367440    0.302934
C     -1.859529   -0.333759    0.162620
C     -4.216536   -0.091515   -0.315141
C      0.580801   -0.712733    0.465599
C     -0.630240    0.132861    0.810144
N     -4.228826   -1.203867   -1.058496
N      0.972465   -0.619977   -0.902420
O     -0.842820   -0.096403    2.200506
H      5.400403    1.728169   -1.012347
H      5.137673    3.151589    0.116470
H      2.990510    2.177986    0.822066
H     -4.385856    3.114860    1.771995
H     -6.391799    2.278029    0.671522
H     -2.242078    1.897333    1.543369
H     -6.308992    0.235478   -0.664886
H     -1.066946   -2.077503   -0.780385
H      3.799606   -2.268930   -0.652704
H      2.542696   -2.826734    0.471046
H     -3.123737   -2.810648   -1.827877
H      2.351716   -1.527101   -2.213393
H      1.155285   -2.688520   -1.433590
H      1.723162    0.757198    1.552670
H      1.759797   -0.942862    2.257724
H      1.974815    0.537882   -2.287798
H      1.406156    1.475888   -0.880607
H      3.926720    0.038700   -1.267608
H      3.914286   -0.746160    1.177405
H      0.393699   -1.785534    0.686554
H     -0.431506    1.200196    0.765516
H     -0.647933   -1.044349    2.423161
