55

C      5.241091    1.591767    0.611538
C      5.219077   -0.275859   -0.950729
C     -5.667813    1.589005   -0.415272
C     -4.633087    2.240212   -1.037375
C     -0.480887   -3.580909   -0.500217
C     -5.410833    0.525823    0.451510
C     -1.730069   -3.309325   -0.057254
C     -3.307112    1.850065   -0.812818
C      0.362482   -2.536533   -0.714201
C     -3.935678   -1.023658    1.584224
C     -3.584472   -2.146782    0.644174
C      2.476278    1.137075    1.286839
C      1.083828    1.530914    0.917698
C      2.333930   -0.716169   -0.253385
C     -0.729947    1.336681   -0.630939
C      4.584704    0.257320    0.290838
C     -4.120751    0.156109    0.661352
C     -2.199768   -2.023398    0.191266
C     -3.070566    0.812632    0.035310
C     -0.076611   -1.233618   -0.474672
C     -1.633335    0.525158    0.188532
C      0.976600   -0.219471   -0.756870
C     -1.342419   -0.940218   -0.024566
C      3.125018    0.527588    0.059005
N      0.663275    1.080555   -0.351751
O      2.965500    1.443240   -0.978631
H      5.271496    1.783787    1.698378
H      4.708028    2.434524    0.122372
H      6.288833    1.637658    0.202078
H      6.321588   -0.376614   -0.749115
H      4.882535   -1.297550   -1.218426
H      5.125733    0.448276   -1.772266
H     -6.717401    1.868803   -0.568242
H     -4.854551    3.067363   -1.710623
H     -0.173098   -4.625312   -0.677092
H     -6.229666   -0.008071    0.958997
H     -2.389481   -4.175482    0.106704
H     -2.556279    2.415090   -1.353716
H      1.363174   -2.771982   -1.070508
H     -3.088452   -0.760261    2.250557
H     -4.878604   -1.198634    2.127368
H     -3.736778   -3.087576    1.208976
H     -4.321214   -2.163232   -0.189472
H      3.099667    1.986313    1.630791
H      2.463105    0.351001    2.075293
H      0.426283    1.264654    1.770897
H      1.068306    2.662324    0.898614
H      2.834995   -1.363988   -0.999296
H      2.215819   -1.286708    0.688260
H     -0.838915    2.441324   -0.495728
H     -0.903195    1.132651   -1.703508
H      4.749838   -0.423856    1.125838
H     -1.452132    0.642676    1.304562
H      1.085542   -0.224035   -1.883077
H      3.126385    1.028653   -1.862280
