29

C     -2.777028   -0.865315   -1.252761
C     -3.272990    1.000094    0.185464
C      3.382034   -0.281444   -0.161950
C      1.176311   -1.469942   -0.039496
C     -0.255227   -1.290472   -0.551173
C     -0.123039    1.164855   -0.225164
C     -2.317724   -0.011743   -0.353859
C      1.899944   -0.170499   -0.422724
C     -0.917197   -0.103869    0.058109
C      1.250455    0.913974    0.413064
O      2.033439    2.031998    0.430229
H     -2.140925   -1.645902   -1.704216
H     -3.805279   -0.840280   -1.591939
H     -4.058677    1.203622   -0.571762
H     -2.676733    1.924476    0.361149
H     -3.727613    0.627099    1.134939
H      3.733849   -1.332978   -0.156421
H      3.949188    0.317009   -0.909620
H      3.560790    0.161177    0.846236
H      1.149419   -1.536667    1.067560
H      1.607401   -2.342248   -0.535095
H     -0.158385   -1.190202   -1.661198
H     -0.806700   -2.200598   -0.270685
H     -0.033946    1.229719   -1.333541
H     -0.628471    2.030966    0.213644
H      1.673207   -0.021591   -1.508664
H     -0.875324   -0.229433    1.172221
H      1.035465    0.488910    1.413950
H      2.123755    2.439283    1.321744
