26

C     -1.485360    1.885668   -0.407248
C      3.036021    1.023330   -0.709985
C     -2.176527   -1.577265    0.178707
C      1.677402    1.099801   -0.458326
C     -0.718720   -1.551843    0.544783
C      3.800814   -0.077716   -0.388979
C     -2.528808   -0.140817    0.022879
C      1.879400   -1.051328    0.440121
C      1.060939    0.025105    0.140983
C     -0.347818   -0.058983    0.482405
N      3.190199   -1.104336    0.188178
N     -1.279809    0.445056   -0.496558
H     -0.981763    2.353352    0.434640
H     -1.171139    2.305168   -1.406084
H     -2.588013    2.131272   -0.374149
H      3.522127    1.880617   -1.186911
H     -2.351907   -2.142809   -0.752151
H     -2.708977   -2.068566    1.036444
H      1.080060    1.946123   -0.702659
H     -0.489295   -1.925939    1.541473
H     -0.152318   -2.085399   -0.276277
H      4.859752   -0.143336   -0.582572
H     -2.692012    0.296741    1.037155
H     -3.371796    0.050269   -0.667306
H      1.466437   -1.951059    0.924007
H     -0.528890    0.436895    1.437432
