35

C     -1.239520   -0.206637   -1.778998
C     -5.063331    0.416357    1.285916
C     -4.884415    0.202825   -0.065253
C     -3.987282    0.338242    2.137522
C      3.109085   -2.103405   -0.904584
C      4.376890   -1.716795   -0.564511
C     -3.611738   -0.089261   -0.544520
C     -2.726030    0.044054    1.626941
C      2.027040   -1.332769   -0.528708
C      4.513579   -0.559907    0.147037
C     -1.151299   -0.486774   -0.254071
C     -2.535360   -0.169597    0.290107
C      2.172525   -0.136130    0.207786
C      3.423675    0.245758    0.543411
C      0.973914    0.586563    0.552911
C      3.721030    1.441194    1.286521
N     -0.179443    0.265872    0.272651
O      1.024434    1.799906    1.288194
O      5.000425    1.616364    1.509989
O      2.942306    2.420723    1.800200
H     -1.728250   -1.032411   -2.295694
H     -1.756457    0.776273   -1.856175
H     -0.187256   -0.073199   -2.115921
H     -6.075120    0.648463    1.666144
H     -5.713193    0.257632   -0.761016
H     -4.162536    0.511101    3.191112
H      2.944505   -3.022660   -1.474714
H      5.232125   -2.327973   -0.862814
H     -3.471959   -0.258383   -1.598609
H     -1.885081   -0.014565    2.310585
H      1.033285   -1.629012   -0.792627
H      5.532542   -0.285322    0.398405
H     -1.134342   -1.608721   -0.167613
H      0.232032    2.086291    1.881672
H      3.233220    3.395903    1.665260
