36

C     -5.733918   -0.702237    1.744753
C      0.704631    0.868270   -0.978860
C      2.692333    1.359390    0.370668
C     -0.194462    0.068102   -0.065767
C      3.986982    1.085063    0.736305
C      2.747118   -0.472018   -1.185750
C     -2.583697   -0.451409    0.473478
C     -4.231440    1.252349   -0.035127
C      6.221031   -1.271721   -0.835280
C      2.104412    0.568925   -0.585761
C     -1.661107    0.323343   -0.409121
C     -3.968996    0.012678    0.303156
C      4.672967    0.034985    0.148574
C      4.050489   -0.738614   -0.809370
C     -3.164756    2.217867   -0.257748
O     -3.441871    3.378333   -0.573335
O     -5.061806   -0.874590    0.501821
O      5.961551   -0.476941    0.306160
O      4.929967   -1.721633   -1.249117
O     -1.870554    1.718447   -0.085740
H     -6.140594    0.322886    1.820634
H     -4.952588   -0.830420    2.547717
H     -6.534346   -1.443173    1.883402
H      0.503330    0.590771   -2.031487
H      0.557736    1.946843   -0.893914
H      2.178163    2.184392    0.843984
H      0.004757   -1.009383   -0.232773
H     -0.053874    0.318452    0.987410
H      4.484179    1.681311    1.482756
H      2.223250   -1.058776   -1.936401
H     -2.276166   -0.253480    1.530626
H     -2.486634   -1.552418    0.339845
H     -5.286232    1.574998   -0.154884
H      6.607673   -0.603751   -1.640098
H      6.891659   -2.102760   -0.591928
H     -1.879187    0.163029   -1.468828
