36

C     -3.467070   -2.263954    1.796523
C      0.784541    0.467284   -2.198280
C      2.715001    1.575200   -1.114270
C     -0.454974    1.258166   -2.029189
C      3.634611    1.642062   -0.120404
C      1.775853   -0.384332   -0.117306
C     -1.871699   -0.491594   -0.927164
C     -3.752780    0.265407    0.397147
C      4.285789   -0.742853    2.508408
C      1.768199    0.547932   -1.117579
C     -1.336095    0.903525   -0.871611
C     -3.008757   -0.736176   -0.009129
C      3.671651    0.722338    0.901253
C      2.740086   -0.288379    0.897621
C     -3.509599    1.634321   -0.018449
O     -4.237391    2.569797    0.385369
O     -3.275949   -2.059567    0.418570
O      4.487928    0.552701    2.027454
O      2.986216   -1.071604    2.016197
O     -2.423486    1.849232   -0.889975
H     -4.318923   -1.679317    2.177590
H     -2.541076   -2.121079    2.388894
H     -3.736978   -3.349322    1.917821
H      1.301691    0.852042   -3.126452
H      0.582823   -0.605182   -2.392066
H      2.651870    2.276906   -1.934111
H     -0.286050    2.359773   -2.034488
H     -1.100495    1.099849   -2.949015
H      4.355183    2.447888   -0.143436
H      1.095714   -1.218604   -0.032572
H     -1.099698   -1.247831   -0.727315
H     -2.287656   -0.707783   -1.961868
H     -4.590549    0.020978    1.083396
H      5.023746   -1.436488    2.072892
H      4.238325   -0.800339    3.613808
H     -0.800000    1.002684    0.111739
