27

C     -0.951362    1.169966   -1.161102
C     -2.228783    0.748042    0.929838
C      1.261069   -0.988216   -0.920164
C     -0.081015   -1.633239   -1.161865
C     -0.378461   -1.229347    1.238256
C      2.637139    0.578341    0.349630
C      1.371198   -0.113707    0.064626
C     -1.066928   -1.155024   -0.134103
C      0.177468    0.164633    0.893275
C     -1.072450    0.339155    0.065090
O      2.514395    1.971074    0.241312
H     -1.865073    0.970754   -1.789828
H     -1.026175    2.232782   -0.872559
H     -0.035478    0.942881   -1.734619
H     -1.866429    1.273519    1.836725
H     -2.859299   -0.122157    1.242935
H     -2.927434    1.447027    0.399696
H      2.059567   -1.290695   -1.582317
H     -0.405089   -1.445112   -2.186718
H      0.032748   -2.734065   -1.011671
H     -1.099727   -1.153971    2.054956
H      0.387326   -2.006587    1.305654
H      3.461691    0.291144   -0.323217
H      3.018307    0.360478    1.389601
H     -2.037254   -1.644551   -0.173708
H      0.302550    0.827997    1.746996
H      2.677497    2.198875   -0.706719
