41

C     -2.449126   -2.648075    1.071953
C      4.466198    0.917938   -0.355016
C      5.205332   -1.509913   -0.047967
C      0.081656    2.358009    0.562351
C     -4.183467   -1.169880   -0.622358
C     -2.675451   -1.352285    1.258573
C      2.843125   -0.942286   -0.371994
C      1.765339    0.061431   -0.587668
C     -2.449321    1.691742   -0.482191
C     -3.369755    0.877432    0.411333
C      4.103444   -0.531218   -0.264441
C     -0.382884    0.900984    0.546460
C      0.784196    0.004433    0.523577
C     -1.281669    0.740718   -0.646296
C     -2.980781   -0.526425    0.067797
O      0.972812   -0.802804    1.412039
O     -1.875534   -0.487288   -0.739732
H     -2.218982   -3.314689    1.900501
H     -2.479055   -3.117250    0.094738
H      5.563132    1.046610   -0.376178
H      3.986091    1.510729    0.440129
H      4.094699    1.264968   -1.351384
H      4.862966   -2.307232    0.650653
H      5.449053   -1.992362   -1.020066
H      6.112151   -1.028289    0.334193
H      0.111124    2.712054   -0.474906
H      1.103918    2.425762    0.986109
H     -0.573522    2.985686    1.189360
H     -4.264304   -2.249587   -0.376248
H     -5.133156   -0.689179   -0.293867
H     -4.103338   -1.097070   -1.729712
H     -2.624092   -0.971414    2.271847
H      2.628720   -1.991226   -0.301025
H      1.201863   -0.269324   -1.506817
H      2.162610    1.076537   -0.730840
H     -2.944249    1.787217   -1.467970
H     -2.170275    2.651443   -0.036303
H     -4.404810    1.125019    0.125262
H     -3.236467    1.126756    1.480563
H     -0.974780    0.764227    1.468822
H     -0.723412    0.968101   -1.581380
