33

C     -2.871290   -1.254681    1.092904
C      3.173431    2.387879    0.542675
C      3.346481   -1.906544   -1.474138
C     -1.872892    1.586633    0.310799
C     -2.904947    1.211964   -0.696497
C      0.619353    1.330242    0.293846
C     -2.198143   -1.056544   -0.226732
C     -0.645556    0.782808    0.165893
C      1.735079    0.504844    0.145276
C     -0.806091   -0.559736   -0.104824
C      0.309610   -1.334043   -0.243151
C      1.589503   -0.836937   -0.124993
N     -2.923031   -0.154628   -1.100531
O      0.157897   -2.683376   -0.515022
O      3.017157    1.011688    0.265371
O      2.677645   -1.645136   -0.270494
H     -3.398468   -2.253064    1.113600
H     -2.127363   -1.242679    1.919052
H     -3.634667   -0.492070    1.270443
H      2.556678    2.698238    1.392730
H      4.253870    2.635695    0.709270
H      2.863650    2.949719   -0.368685
H      3.016289   -1.239585   -2.310629
H      4.423329   -1.756509   -1.316807
H      3.108456   -2.967088   -1.756782
H     -2.266777    1.477869    1.359786
H     -1.565939    2.655646    0.226267
H     -3.934346    1.521735   -0.362960
H     -2.710189    1.843327   -1.609914
H      0.726263    2.382865    0.505766
H     -2.144551   -2.035662   -0.784187
H     -2.513793   -0.246357   -2.042514
H      0.943353   -3.316515   -0.629951
