31

C      0.766489   -0.242408   -0.631288
C     -0.422712    0.430638    0.027172
C      1.722199   -0.746507    0.373496
C     -1.159897   -0.489130    0.903876
N     -1.271428    1.080826   -0.947020
O      2.462702    0.065524    0.968123
O      1.803965   -2.093995    0.658900
O     -1.916937   -0.029016    1.790009
O     -1.040135   -1.884698    0.778297
C     -0.775572   -0.707408   -0.036164
C      0.555810   -0.484727    0.569365
C     -1.732705    0.381092    0.005533
C      1.291114    0.622551   -0.074805
N      1.319444   -1.733040    0.392056
O     -2.844597    0.160364   -0.596963
O     -1.621048    1.609797    0.596105
O      2.365096    0.383799   -0.680102
O      0.866170    1.926950   -0.053765
Mg     0.000000    0.000000    0.000000
H      0.444370   -1.106591   -1.269452
H      1.257784    0.497811   -1.275329
H      0.010636    1.231654    0.671361
H     -0.667653    1.654022   -1.577586
H     -1.989384    1.631869   -0.470560
H     -0.613764   -0.988219   -1.110099
H     -1.218284   -1.613332    0.431439
H      0.532574   -0.321415    1.668973
H      0.733640   -2.495443   -0.014529
H      2.087275   -1.565490   -0.296445
H     -2.455172    2.125027    0.846452
H      1.510017    2.699493    0.106884
