121

C     -6.192193    0.966727   -0.355255
C     -0.611997    4.276663    2.545399
C      4.515092    3.773078   -2.457362
C     -3.137124    6.426893    0.183222
C      0.865835   -1.383120   -0.865371
C     -3.254003   -1.621938    0.603526
C      0.500544   -4.873066   -1.687136
C      0.914339    1.612740    2.377662
C     -1.464350   -7.083850    2.279596
C     -4.790758    3.416342    1.201881
C      7.294169    0.348499   -0.527280
C      5.510659   -0.990969    0.345091
C      1.290180   -6.870083    2.533097
C     -4.906658    1.004102   -1.136988
C      5.448111    1.451095   -2.468539
C     -0.235645    2.876292    0.475704
C     -1.446073   -4.660281    1.665989
C     -0.207178    4.248545    1.096298
C      4.220236    2.308413   -2.250791
C     -2.658251    4.987718    0.434549
C      0.372993   -0.609974    0.424496
C     -2.104669   -0.865848    1.364136
C      0.702828   -5.199998   -0.211768
C      5.249902    0.152958   -1.768415
C     -3.791584    1.730980   -0.382102
C     -0.767746   -3.629972    0.782418
C     -1.180324    5.049920    0.257469
C      3.793950   -0.250866   -1.610638
C     -0.913312   -1.195366    0.655027
C     -3.238562    4.139685   -0.646860
C     -0.273174   -6.283874    0.200304
C      0.870245    0.701358    0.065804
C     -2.741651    0.432906    1.569993
C      2.938550    0.881079   -1.110824
C      0.791990    1.912239    0.943884
C     -0.669633   -5.990641    1.618712
C     -4.311801    3.172714   -0.212929
N      5.853379    0.164147   -0.461723
O     -0.767600    5.792347   -0.614841
O      3.368975   -0.578442   -2.904793
O     -3.734907    4.931064   -1.712206
O      0.332996   -7.497028    0.010642
O     -2.406675    1.056385    2.642556
O      1.987967    2.696127    0.689654
O     -5.400121    3.383587   -1.062609
O      0.472220   -5.788523    2.372023
O      3.769059    2.040213   -0.959485
O      0.520793   -4.129409    0.572641
O     -3.639911    1.093044    0.813261
O     -0.578722   -2.445899    1.299893
O      2.302469    0.550079    0.010625
O     -0.001617    0.387244   -0.000000
H     -6.028015    0.704522    0.713808
H     -6.863259    1.804285   -0.482704
H     -6.762377    0.074698   -0.786310
H      0.251512    4.166001    3.234344
H     -0.999359    5.314203    2.780535
H     -1.462814    3.617021    2.776757
H      3.785994    4.432828   -1.983085
H      5.566126    3.942310   -2.089203
H      4.579216    3.962366   -3.547455
H     -2.565734    7.128291    0.819031
H     -2.949525    6.657062   -0.906370
H     -4.224598    6.544148    0.316968
H      0.079673   -2.101852   -1.197789
H      0.955112   -0.698916   -1.717246
H      1.714073   -1.979080   -0.582496
H     -3.219444   -2.703081    0.782112
H     -2.964947   -1.541223   -0.485114
H     -4.213926   -1.160543    0.814998
H     -0.531933   -4.536033   -1.885744
H      0.709898   -5.782152   -2.314558
H      1.187914   -4.070672   -1.961968
H      1.117619    0.499713    2.493628
H      0.047951    1.797724    3.023221
H      1.853669    2.041603    2.857225
H     -1.247056   -8.025720    1.748478
H     -2.565245   -6.865356    2.298234
H     -1.169477   -7.248204    3.335770
H     -5.801277    2.968197    1.324191
H     -4.969754    4.526021    1.276471
H     -4.081058    3.118520    1.972368
H      7.483861    1.418940   -0.410432
H      7.724201   -0.160927    0.363677
H      7.731638   -0.125839   -1.419127
H      5.472181   -1.935978   -0.194023
H      4.536323   -0.790043    0.829643
H      6.242438   -1.046785    1.189083
H      0.786204   -7.740130    3.031156
H      1.896592   -7.155204    1.662658
H      2.061918   -6.565572    3.311689
H     -4.522766    0.003437   -1.401301
H     -5.109866    1.518655   -2.108591
H      5.510988    1.271368   -3.578895
H      6.337835    2.020684   -2.115478
H     -0.180825    3.058577   -0.628898
H     -1.234440    2.481861    0.648583
H     -2.432095   -4.895065    1.234318
H     -1.492153   -4.409781    2.714766
H      0.766380    4.765174    1.005122
H      3.456663    1.971418   -2.992692
H     -2.958945    4.743805    1.454110
H      1.096410   -1.044588    1.219637
H     -2.132635   -1.317029    2.439555
H      1.753062   -5.615074   -0.147129
H      5.763688   -0.644823   -2.349817
H     -2.892374    1.831284   -1.006058
H     -1.247547   -3.750528   -0.204474
H      3.780742   -1.161835   -1.019122
H     -1.277421   -1.618681   -0.359377
H     -2.432536    3.533039   -1.140007
H     -1.165581   -6.138154   -0.461111
H      0.571245    1.015009   -0.962373
H      2.260684    1.201018   -1.920671
H      4.060665   -1.106680   -3.399133
H     -4.539927    5.419456   -1.461096
H     -0.338881   -8.106743   -0.421849
H      2.136386    3.308514    1.426521
H     -5.163931    3.551744   -1.990867
H      0.796169   -0.193069    0.000000
H     -0.794552   -0.194175   -0.000000
