121

C     -5.787099   -2.445756   -0.211972
C      2.295670   -4.787851   -0.303175
C      6.800497   -0.206122   -0.418853
C     -1.158321   -7.225131   -0.357556
C      0.492818    0.858377    2.217957
C     -3.342636    0.275737    1.059277
C     -0.004180    5.077663    1.914361
C      1.210326   -2.494273    2.069957
C     -1.969368    5.377701   -1.771626
C     -3.227185   -3.899543    0.952011
C      6.716760    3.651019   -0.405518
C      5.207546    3.901384    1.332232
C     -4.128441    6.577189   -0.605393
C     -5.104964   -2.826941   -1.466903
C      5.181586    1.388222   -1.445553
C      0.589224   -2.923408   -0.341191
C     -2.649003    3.253257   -0.790947
C      0.851143   -4.382357   -0.505959
C      5.387362    0.011650   -0.886562
C     -1.334255   -5.747357    0.024202
C      0.122849   -0.127863    1.133706
C     -2.207836   -0.438480    0.335825
C     -1.025530    4.274324    1.140687
C      4.678038    2.372193   -0.435630
C     -3.657860   -3.126008   -1.417652
C     -1.332192    2.670731   -0.388807
C     -0.012027   -5.236560    0.350510
C      3.559655    1.851291    0.423327
C     -0.953898    0.463344    0.262104
C     -2.111341   -5.016862   -0.988636
C     -2.110982    5.218636    0.664056
C      1.298332   -0.684802    0.407515
C     -2.640114   -0.832632   -1.036327
C      3.325741    0.414012    0.049862
C      1.462889   -2.206909    0.632836
C     -2.726450    4.748460   -0.623881
C     -3.342183   -4.299825   -0.471499
N      5.750788    2.915422    0.384596
O      0.443236   -5.541238    1.449138
O      2.403077    2.618611    0.236142
O     -2.587355   -5.958628   -1.931555
O     -3.051753    5.283657    1.698988
O     -2.867488    0.181195   -1.785439
O      2.830889   -2.446815    0.382515
O     -4.479348   -5.134855   -0.579019
O     -4.035314    5.193697   -0.686252
O      4.538867   -0.256730    0.176102
O     -0.473782    3.686978    0.005384
O     -2.753782   -2.106725   -1.375676
O     -1.383037    1.717439    0.608091
O      2.457422   -0.150649    0.979862
O     -0.000513    0.405718   -0.000000
H     -5.944574   -3.310413    0.498522
H     -5.428922   -1.549610    0.290636
H     -6.852934   -2.190745   -0.505853
H      2.632515   -4.750541    0.732381
H      2.327482   -5.882442   -0.591223
H      2.972116   -4.301009   -1.027859
H      7.132915    0.733202    0.114383
H      7.517625   -0.302743   -1.261737
H      6.903223   -1.008159    0.318260
H     -2.149435   -7.674365   -0.425204
H     -0.616355   -7.689658    0.500573
H     -0.533599   -7.319453   -1.265435
H     -0.183848    0.732908    3.111312
H      1.572752    0.757526    2.531269
H      0.362085    1.886600    1.894474
H     -2.942628    1.150541    1.624568
H     -3.823907   -0.375287    1.797632
H     -4.111446    0.583147    0.318484
H     -0.518957    5.630935    2.715076
H      0.660568    4.328147    2.406919
H      0.626964    5.694250    1.261282
H      0.189564   -2.903800    2.209532
H      1.989427   -3.209887    2.450782
H      1.299251   -1.618501    2.746281
H     -2.560618    5.406789   -2.711405
H     -1.579013    6.392644   -1.503626
H     -1.053412    4.773317   -2.021466
H     -3.763445   -4.634430    1.616532
H     -3.692266   -2.923649    1.197253
H     -2.157137   -3.794705    1.294158
H      7.467877    3.001403   -0.899458
H      6.270287    4.405892   -1.074832
H      7.316252    4.254235    0.340802
H      4.300387    4.373597    0.904299
H      5.969695    4.694225    1.530259
H      4.945158    3.472247    2.301035
H     -3.582406    7.085365   -1.427210
H     -3.743616    7.011059    0.333912
H     -5.190464    6.918445   -0.698857
H     -5.634784   -3.718829   -1.880401
H     -5.259129   -2.022419   -2.212968
H      4.491444    1.385540   -2.311735
H      6.156055    1.752517   -1.822886
H      0.738898   -2.402136   -1.334757
H     -0.452574   -2.785955   -0.049046
H     -2.847260    2.989180   -1.847045
H     -3.499090    2.837986   -0.213974
H      0.644207   -4.631490   -1.591168
H      5.167888   -0.724727   -1.673482
H     -1.949297   -5.791616    0.970875
H     -0.325691   -1.008228    1.703282
H     -1.959603   -1.296344    0.985900
H     -1.472063    3.550276    1.824668
H      4.272360    3.257860   -0.986874
H     -3.461923   -3.629922   -2.435971
H     -0.893910    2.171193   -1.282628
H      3.886393    1.944213    1.490947
H     -0.631568    0.474300   -0.811656
H     -1.535935   -4.285359   -1.590874
H     -1.652967    6.220938    0.566750
H      1.247694   -0.521673   -0.694067
H      2.884279    0.318033   -0.943802
H      2.254226    3.138288    1.061599
H     -3.438298   -5.663950   -2.292327
H     -2.646740    5.307990    2.579696
H      3.354702   -2.510221    1.211227
H     -4.611470   -5.680397    0.218695
H     -0.790008   -0.203122   -0.000000
H      0.790521   -0.202596    0.000000
