37

C      4.905142    0.182881   -0.686631
C     -1.583013    0.601138   -1.723663
C     -1.418836    2.061732    0.251270
C     -0.911993   -0.481627    1.878337
C     -2.845975   -1.357733   -0.025322
C      2.729037   -1.036715   -0.949781
C      2.773217    0.922799    0.357147
C      1.363312   -1.164978   -0.686937
C      1.405692    0.799326    0.623623
C     -2.992435    0.117347    0.188905
C     -1.352915   -1.634156   -0.205614
C      3.431862    0.019612   -0.418768
C      0.691149   -0.254116    0.097439
C     -1.616157    0.665930   -0.218011
C     -0.731584   -0.367981    0.382993
H      5.261678   -0.716007   -1.220700
H      5.042340    1.112842   -1.251656
H      5.380175    0.323093    0.305503
H     -2.102048    1.531956   -2.092745
H     -2.224664   -0.236741   -2.076347
H     -0.574522    0.596600   -2.150805
H     -0.598282    2.526211   -0.300602
H     -1.380829    2.150214    1.345249
H     -2.337931    2.634450   -0.063841
H     -0.082037   -1.099954    2.276106
H     -0.914507    0.470782    2.405354
H     -1.858337   -1.046230    2.110278
H     -3.251747   -1.933255    0.809553
H     -3.396020   -1.599777   -0.973258
H      3.254427   -1.755366   -1.566703
H      3.297322    1.749715    0.779715
H      0.886559   -2.013781   -1.134766
H      0.932152    1.552171    1.254743
H     -3.189925    0.370413    1.253800
H     -3.787362    0.590580   -0.410506
H     -1.091803   -2.532416    0.368007
H     -1.111139   -1.748959   -1.281039
