27

C      2.515625   -1.222064    0.569299
C     -2.024415   -0.934886   -1.211807
C     -1.331993   -0.733715    1.163665
C      1.292563    0.863383    0.854663
C      0.228802    0.542467   -1.615846
C      1.412645   -0.311281    0.269809
C      0.386517   -0.702533   -0.719887
C     -0.713909    1.061442   -0.535315
C      0.118339    1.749697    0.493259
C     -1.015164   -0.387120   -0.242813
O     -0.560989    2.184105    1.597901
H      2.196906   -2.282008    0.379009
H      3.392659   -1.073371   -0.125797
H      2.936582   -1.103476    1.587449
H     -1.544257   -1.366689   -2.124242
H     -2.547480   -1.784700   -0.722020
H     -2.783760   -0.183102   -1.512540
H     -0.444363   -1.067387    1.747962
H     -2.100762   -1.550483    1.233219
H     -1.814460    0.156181    1.645896
H      1.983446    1.260382    1.594159
H      1.167203    1.108496   -1.722362
H     -0.329207    0.322861   -2.522670
H      0.526827   -1.635150   -1.255324
H     -1.567656    1.634131   -0.914555
H      0.584323    2.648016   -0.006264
H      0.035979    2.806804    2.095150
