25

C     -3.079355   -0.232186    0.600102
C      1.235649    1.443471    0.281373
C      1.458675   -0.889924    0.061494
C      2.508871    1.624212   -0.221652
C      2.744141   -0.712645   -0.446657
C     -0.688562   -0.014677    0.975567
C     -1.740813   -0.021247   -0.094106
C      0.677894    0.183993    0.435972
C      3.284172    0.546793   -0.594115
Cl     4.911286    0.778234   -1.236927
N     -1.570840   -1.079335   -1.050806
Cl     0.690221    0.000000    0.000000
H     -2.951528   -1.003396    1.409472
H     -3.348132    0.703235    1.136791
H     -3.865968   -0.567295   -0.092223
H      0.620811    2.281639    0.575837
H      1.100133   -1.906848    0.149320
H      2.942801    2.607576   -0.341734
H      3.369772   -1.545033   -0.745133
H     -0.794440   -0.949362    1.558424
H     -0.966785    0.811441    1.687578
H     -1.791206    0.953289   -0.640379
H     -1.681543   -1.997681   -0.557124
H     -2.375032   -1.014253   -1.724047
H     -0.690221    0.000000    0.000000
