25

C     -0.352559   -0.780274    1.955948
C      2.170276   -1.522740   -1.298843
C     -2.834684    1.055038   -0.946542
C     -1.535138    0.836854   -1.264805
C     -2.518605    0.111520    1.178416
C     -1.177089   -0.141288    0.918143
C      1.737617   -0.429163   -0.296853
C     -3.361716    0.703776    0.270136
C     -0.681570    0.224893   -0.314732
C      2.842406    0.622277   -0.277646
Cl    -5.051872    1.015716    0.614343
O      3.986984    0.284159    0.078105
O      2.557343    1.891837   -0.645141
O      0.561282    0.045873   -0.692534
H     -1.034216   -0.942543    2.859820
H     -0.017909   -1.807067    1.710290
H      0.409708   -0.099384    2.349387
H      1.731282   -2.450646   -0.923177
H      3.263322   -1.507266   -1.316741
H      1.749132   -1.324001   -2.301364
H     -3.497291    1.526647   -1.675541
H     -1.104740    1.112038   -2.229519
H     -2.912573   -0.174323    2.145194
H      1.803239   -0.861928    0.713626
H      3.267372    2.609995   -0.609969
