86

C      8.739055   -0.600281    1.540756
C     10.397366    0.230564    0.002394
C      6.338556   -1.976046   -0.840978
C      1.559350    2.092725   -0.005417
C     -7.093148    1.348716   -2.376365
C     -4.222486    0.900942   -2.176364
C     -7.795228   -1.511016    1.602705
C    -10.819358    1.357885    0.287306
C     -1.790908   -2.040792    1.361367
C      6.694024    1.136781   -0.322628
C      3.399832    0.339109   -1.713664
C     -1.001076    0.849967    0.595692
C      8.093090    0.791975   -0.519330
C      5.665208    0.244928    0.193913
C      4.519289   -0.652778   -1.855041
C      2.352190   -0.165509   -0.765011
C      0.227518    0.043186    0.412635
C     -4.900650   -1.927160    1.774173
C     -2.050984    0.425063    1.521029
C     -3.789008   -1.085792    2.342930
C      8.992340    0.503657    0.605798
C      5.258669   -0.955084   -0.568483
C      1.190810    0.755051   -0.562403
C     -6.511101    0.497121   -1.303328
C     -5.169769    0.287207   -1.208583
C     -6.858949   -0.879831    0.614203
C     -9.370284    1.125040    0.271238
C     -5.538211   -1.095746    0.720231
C     -7.366468   -0.074120   -0.407126
C     -4.664245   -0.506580   -0.203434
C     -2.716673   -0.868620    1.272642
O     -8.598545    1.886931    0.921586
O     -8.748582    0.089400   -0.433389
O     -3.333585   -0.792161   -0.006401
H      7.829544   -0.602140    2.127842
H      9.574221   -0.525570    2.331186
H      8.995986   -1.576051    1.050235
H     10.476653   -0.861290   -0.094552
H     10.487223    0.689001   -0.983459
H     11.194229    0.581506    0.674153
H      6.867052   -1.798037   -1.805869
H      6.993587   -2.173677    0.018101
H      5.853257   -2.998737   -1.022771
H      0.763772    2.834883   -0.274205
H      2.489769    2.484910   -0.442817
H      1.654910    2.083955    1.100741
H     -7.927827    0.835651   -2.876865
H     -7.405390    2.300369   -1.880581
H     -6.291841    1.573705   -3.110067
H     -4.471993    0.665878   -3.232126
H     -4.234070    1.993669   -2.006113
H     -3.194479    0.510348   -2.014570
H     -7.541081   -1.262324    2.637948
H     -8.828970   -1.115924    1.418144
H     -7.813062   -2.581531    1.386987
H    -11.212504    0.839910    1.211547
H    -11.092666    2.433919    0.321473
H    -11.361117    0.919600   -0.548126
H     -1.565102   -2.524853    0.411878
H     -0.877320   -1.748267    1.901850
H     -2.282541   -2.880256    1.970779
H      6.698644    2.045523    0.398340
H      6.256593    1.671586   -1.251448
H      3.803791    1.299722   -1.394050
H      2.966244    0.494157   -2.741593
H     -1.425101    0.987925   -0.460241
H     -0.677933    1.925284    0.838262
H      8.565018    1.714565   -1.037004
H      8.275063    0.012968   -1.315302
H      5.799379   -0.089240    1.265969
H      4.724583    0.898370    0.307674
H      5.203423   -0.314792   -2.658122
H      4.043131   -1.610166   -2.192176
H      1.945616   -1.098520   -1.231927
H      2.789244   -0.440110    0.193357
H      0.801838   -0.185666    1.317535
H     -0.046956   -0.939115   -0.072177
H     -4.528269   -2.864114    1.313718
H     -5.610465   -2.238590    2.563203
H     -2.885352    1.210545    1.559494
H     -1.681706    0.475771    2.611501
H     -4.190874   -0.113228    2.652715
H     -3.341202   -1.545471    3.253235
H      9.197583    1.439315    1.236832
H      4.504001   -1.500094    0.076434
H      0.645423    0.889993   -1.523077
