38

C      5.482410    0.516496    0.637689
C      5.238779   -0.801854    0.325094
C      2.046967   -2.205578   -0.395494
C     -3.300504    0.350156    2.169374
C      4.491423    1.461860    0.707777
C      3.905548   -1.149354    0.075131
C      1.674410   -0.862009   -0.158775
C     -2.598095    0.539556    0.846994
C      2.894749   -0.220951    0.138984
C      3.182276    1.081278    0.453894
C     -3.529977    0.485276   -0.324306
C     -2.871972   -0.154675   -1.518113
C     -1.412468    0.087246   -1.611408
C     -0.696208    0.142796   -0.258266
Br     4.876610    3.285289    1.146290
Cl     1.937157    2.289481    0.544865
N      3.357926   -2.331279   -0.248944
O     -3.929707   -0.879467    2.267485
O     -3.970239    1.777647   -0.602973
O     -3.200434   -1.521740   -1.631993
O     -1.072990    1.232154   -2.328222
O      0.492568   -0.361282   -0.208420
O     -1.625467   -0.434131    0.664689
H      6.508304    0.795304    0.832477
H      5.973663   -1.572417    0.258016
H      1.291769   -2.949201   -0.653538
H     -2.489713    0.352955    2.950710
H     -3.960623    1.190253    2.376763
H     -2.139429    1.558029    0.870395
H     -4.460842   -0.108423   -0.106694
H     -3.347779    0.324484   -2.425043
H     -0.955568   -0.791906   -2.140514
H     -0.735950    1.249588    0.007292
H      3.898292   -3.240014   -0.370623
H     -3.267258   -1.609865    2.216452
H     -3.204057    2.354412   -0.838242
H     -4.167630   -1.610331   -1.747776
H     -0.315938    1.730215   -1.921027
