38

C     -5.166150    1.504566    0.948618
C     -4.233571    1.581732    1.955149
C     -0.792670    0.689700    1.852335
C      3.374457    1.330275   -1.423998
C     -4.806969    1.035688   -0.282289
C     -2.928580    1.180534    1.711421
C     -1.161854    0.371762    0.520162
C      2.560853    0.024981   -1.372473
C     -2.521907    0.703895    0.493944
C     -3.485318    0.640151   -0.494493
C      2.552234   -0.500258    0.047319
C      1.970965   -1.916688   -0.072192
C      0.910496   -1.951439   -1.118876
C      0.296397   -0.578622   -1.380612
Br    -6.065680    0.903520   -1.731059
Cl    -3.051239    0.048625   -2.066456
N     -1.849401    1.158231    2.515377
O      4.680184    0.969712   -1.064650
O      3.831888   -0.582023    0.583208
O      1.438091   -2.238827    1.164162
O      1.489507   -2.371889   -2.312004
O     -0.414339   -0.096344   -0.392053
O      1.289271    0.354115   -1.716682
H     -6.209773    1.816020    1.111543
H     -4.533352    1.951660    2.911621
H      0.185324    0.581421    2.296831
H      2.955516    2.045899   -0.695935
H      3.327241    1.691866   -2.462569
H      3.072922   -0.690662   -2.062373
H      1.862156    0.089564    0.655507
H      2.823480   -2.571451   -0.344173
H      0.132254   -2.692497   -0.862797
H     -0.242551   -0.733657   -2.374292
H     -1.891475    1.479687    3.525650
H      5.276220    1.399188   -1.732913
H      3.718647   -0.812609    1.541885
H      0.703455   -2.907029    1.101685
H      0.903271   -2.908795   -2.871406
