22

C     -2.257874   -1.341131   -0.921221
C      3.033308   -0.477294    0.987270
C      1.683714   -0.719124    0.971506
C      2.746226    1.184145   -0.648748
C     -1.696712   -0.041182   -0.291528
C      3.589978    0.482920    0.173608
C      1.368502    0.936047   -0.663673
C      0.793490   -0.013911    0.136876
C     -2.733609    0.321957    0.729121
Cl     5.327164    0.790687    0.197309
Cl     0.328280    1.857492   -1.731772
O     -2.465823    0.335274    1.943248
O     -4.008279    0.643249    0.257329
O     -0.490227   -0.340853    0.214253
H     -1.449213   -1.819595   -1.511713
H     -2.496460   -2.020348   -0.072358
H     -3.096806   -1.132008   -1.582568
H      3.714242   -1.029162    1.637537
H      1.281134   -1.473675    1.617257
H      3.145587    1.937685   -1.294135
H     -1.723139    0.744567   -1.045249
H     -4.593483    1.174260    0.897650
