33

C     -3.020884    0.165433    0.075527
C     -1.691784   -1.695174   -0.753692
C      3.455151   -0.575885    0.319273
C      1.362166   -0.896425   -1.033611
C      0.434517    0.136560   -1.573595
C      1.404449    0.831200    0.649664
C     -1.879019   -0.220644   -0.826889
C      1.949665   -0.522770    0.317532
C     -0.641465    0.602214   -0.625255
C     -0.114095    0.655553    0.752271
C     -0.653704    1.719216    1.599189
O     -1.453395    2.553862    1.129981
O     -0.301297    1.835557    2.928107
H     -2.699506    0.120283    1.134809
H     -3.849853   -0.581630   -0.098884
H     -3.416221    1.156638   -0.163579
H     -2.727269   -2.133801   -0.618694
H     -1.333638   -2.140444   -1.692053
H     -1.125072   -1.978029    0.147220
H      3.817289   -1.433303    0.936325
H      3.775544   -0.828600   -0.732401
H      3.926301    0.354878    0.670957
H      0.950731   -1.922631   -1.032091
H      2.229612   -0.938511   -1.735697
H      1.050973    0.992637   -1.955359
H     -0.066392   -0.321263   -2.464985
H      1.808528    1.238330    1.602788
H      1.681115    1.569171   -0.128911
H     -2.233587    0.007762   -1.876097
H      1.574490   -1.229279    1.096878
H     -0.930094    1.658581   -0.909634
H     -0.329264   -0.356118    1.215661
H     -0.953989    2.176632    3.645246
