35

C      5.761897    1.041145    0.374323
C      0.748344    0.142926   -0.754254
C      1.397730   -1.076099   -0.150558
C     -0.322676   -0.291825   -1.702610
C      2.498526   -0.771233    0.803955
C     -4.086263   -0.747418   -1.244352
C     -3.507710   -0.736796    0.118769
C     -1.390507   -1.088560   -1.012221
C      3.604405   -0.055391    0.174019
C     -2.063454   -0.333080    0.048926
C     -3.343551    1.471285    0.646942
N     -4.086325    0.431233    0.806528
N     -2.203798    1.092962   -0.158898
O      3.656616    0.228138   -1.045742
O     -3.557006    2.760771    1.144039
O      4.690659    0.354630    0.951935
S     -2.719944   -1.352388   -2.256324
H      5.881548    0.839652   -0.710393
H      5.573638    2.141891    0.516878
H      6.731223    0.762978    0.843091
H      0.301987    0.735943    0.101060
H      1.474977    0.795980   -1.292217
H      0.583075   -1.620802    0.402355
H      1.716399   -1.771857   -0.952017
H     -0.767458    0.564855   -2.256532
H      0.185829   -0.904533   -2.507115
H      2.066951   -0.198684    1.662351
H      2.878072   -1.729746    1.216762
H     -4.953994   -1.435814   -1.286512
H     -4.346733    0.276903   -1.583143
H     -3.702357   -1.652851    0.681313
H     -1.025419   -2.067912   -0.644043
H     -1.611809   -0.517822    1.038816
H     -1.655549    1.738829   -0.736387
H     -4.407323    2.972691    1.625622
