35

C      0.509221    0.604486    0.801458
C      1.706597   -0.051844    0.160476
C     -0.687678    0.299704   -0.081509
C      2.966746    0.191975    0.967723
C     -3.250265   -1.378761    1.037130
C     -3.629757   -0.732938   -0.229891
C     -1.951659    0.917690    0.476026
C      4.120548   -0.467217    0.307778
C     -3.151894    0.651380   -0.347536
C     -2.805634   -0.543006   -2.305936
N      5.181623    1.554329    0.084904
N     -3.215743   -1.406032   -1.424623
N     -2.912057    0.770014   -1.773202
N      5.153119    0.170839   -0.103363
O      4.083729   -1.839614    0.125189
O     -2.348325   -0.950276   -3.559609
S     -2.379642   -0.074503    1.966160
H      0.655760    1.681170    0.944211
H      0.363181    0.161322    1.804717
H      1.566401   -1.141703    0.112081
H      1.801168    0.337701   -0.871915
H     -0.506910    0.622758   -1.121189
H     -0.774594   -0.806296   -0.108136
H      3.144329    1.296391    0.947834
H      2.845915   -0.187649    1.999649
H     -2.487965   -2.166644    0.831808
H     -4.090484   -1.799358    1.621755
H     -4.760850   -0.705163   -0.265041
H     -1.849078    1.971308    0.716070
H     -3.940102    1.404335   -0.049486
H      5.912450    1.958657    0.709443
H      4.457763    2.110939   -0.418989
H     -2.826674    1.632139   -2.340718
H      4.808847   -2.332735   -0.388049
H     -1.708087   -1.753398   -3.659150
