54

C      3.288896   -0.401581    0.463134
C      4.387673   -1.343356    0.007458
C     -2.511877    1.600757    1.007652
C     -1.352121    1.722969    1.906436
C      1.987865   -1.182926    0.492355
C     -2.338196    0.904496   -0.300522
C     -0.214542    2.507619    1.369172
C      5.680189   -0.528993   -0.011590
C      0.861704   -0.226599    0.956995
C     -5.406854   -0.547441   -2.496486
C     -5.825481   -0.293607   -1.120274
C     -3.705896    0.907846   -0.972998
C      0.377878    1.989075    0.149481
C      6.753977   -1.472832   -0.462931
C     -4.775786    0.230446   -0.238750
C     -5.328387   -1.921059    0.362979
N      7.171644   -0.070311   -2.307970
N      0.825170    0.819181    0.007629
N     -6.204590   -1.535470   -0.484471
N     -4.269525   -0.979441    0.385010
N      7.409961   -1.202927   -1.537238
O      0.474243    2.872562   -0.991276
O      7.038996   -2.610646    0.254323
O     -5.444696   -3.095139    1.122770
S     -3.667806   -0.032910   -2.537432
H      3.579600   -0.055081    1.474516
H      3.223689    0.474201   -0.184847
H      4.175615   -1.718464   -0.999307
H      4.459295   -2.142129    0.779701
H     -3.383753    1.079855    1.521587
H     -2.941363    2.619324    0.750192
H     -1.067661    0.769444    2.409852
H     -1.751073    2.355410    2.806128
H      1.719105   -1.468109   -0.540401
H      2.037730   -2.020821    1.194372
H     -1.942893   -0.127893   -0.228978
H     -1.682073    1.417791   -1.028749
H     -0.529329    3.591415    1.174956
H      0.582424    2.669958    2.166665
H      5.892775   -0.102428    0.972330
H      5.528857    0.277201   -0.752910
H      1.125963    0.141412    1.984427
H     -0.064650   -0.829633    1.063428
H     -6.004418    0.117010   -3.186944
H     -5.528798   -1.616356   -2.829727
H     -6.736650    0.369081   -1.064427
H     -3.914738    1.962199   -1.246970
H     -5.169906    0.886471    0.563585
H      7.061780   -0.189820   -3.335000
H      7.099758    0.875183   -1.908346
H     -3.320395   -1.188129    0.793796
H      0.730065    2.446402   -1.854391
H      7.939884   -3.095145    0.183265
H     -6.331281   -3.608063    1.153571
