54

C      4.374110   -1.768113   -0.520169
C      4.704488   -0.518531    0.248234
C     -1.664566    0.080183    1.187197
C     -0.817564    0.641956    0.108331
C      3.667310   -1.522124   -1.811006
C     -2.978305   -0.476483    0.702311
C     -0.444824   -0.313715   -0.964362
C      5.595721    0.417339   -0.516624
C      2.363923   -0.809531   -1.555892
C     -5.915186    2.188594    0.662255
C     -6.045878    1.291288   -0.540218
C     -3.756980    0.628180    0.039940
C      0.320909   -1.447182   -0.429228
C      5.850667    1.603776    0.335197
C     -5.075100    0.179294   -0.474901
C     -7.139538   -0.543089    0.100577
N      8.177703    1.217356    0.331710
N      1.561580   -1.637378   -0.710628
N     -7.323415    0.630748   -0.388956
N     -5.761070   -0.787113    0.321609
N      7.044036    1.930379    0.697337
O     -0.287034   -2.357924    0.409188
O      4.798098    2.397108    0.765732
O     -8.178368   -1.454171    0.375318
S     -4.256051    1.831013    1.308121
H      3.665012   -2.354225    0.130183
H      5.246280   -2.427207   -0.664651
H      5.242661   -0.857613    1.174612
H      3.789999   -0.021921    0.607731
H     -1.122508   -0.714553    1.721829
H     -1.823542    0.894063    1.941584
H      0.119985    1.041363    0.603300
H     -1.252369    1.541944   -0.380764
H      3.411928   -2.511777   -2.245218
H      4.288633   -1.005951   -2.566789
H     -2.798232   -1.316610    0.025881
H     -3.534043   -0.833727    1.569675
H      0.114399    0.220037   -1.783571
H     -1.374863   -0.675806   -1.490316
H      6.532930   -0.122769   -0.737315
H      5.052119    0.709160   -1.449367
H      1.851588   -0.550218   -2.519807
H      2.594908    0.139662   -1.034115
H     -5.921487    3.262500    0.363336
H     -6.638564    1.974170    1.462902
H     -5.984644    1.854835   -1.495432
H     -3.204542    1.113461   -0.785226
H     -4.960298   -0.218504   -1.511563
H      8.989585    1.697727   -0.100948
H      8.220091    0.195499    0.489649
H     -5.351212   -1.505556    0.925560
H      0.258068   -3.037638    0.941465
H      4.933199    3.262961    1.278223
H     -9.159746   -1.155164    0.320445
