16

C      0.526549    0.855100   -0.412398
C     -0.457732   -0.292567   -0.507835
C      1.921094    0.410383   -0.558407
C     -1.827014    0.255237   -0.349275
N     -0.217938   -1.276813    0.502664
O      2.412842    0.137973   -1.685685
O      2.727970    0.282719    0.561334
O     -2.277369    1.152674   -1.136971
O     -2.635798   -0.212667    0.670603
H      0.338189    1.390457    0.521221
H      0.295866    1.545988   -1.255491
H     -0.414174   -0.771296   -1.519073
H      0.448849   -2.010842    0.230722
H     -1.069101   -1.716907    0.889368
H      3.681459   -0.066356    0.533376
H     -3.453693    0.316918    0.989596
