35

C      5.329500   -1.176858   -1.349568
C      0.189061    1.345705    0.531039
C      1.479333    0.556972    0.595080
C     -0.849831    0.837641    1.461664
C      2.446363    1.162231   -0.395466
C     -3.788310   -1.628945    1.553206
C     -3.384536   -1.193161    0.209422
C     -1.293780   -0.558432    1.310931
C      3.744509    0.439355   -0.390696
C     -1.910532   -1.035210    0.095694
C     -3.000166    0.714923   -0.925218
N     -3.903577    0.105099   -0.203755
N     -1.836457   -0.135049   -1.034972
O      4.591525    0.654817    0.519147
O     -3.164669    1.971368   -1.479140
O      4.082551   -0.486484   -1.362406
S     -2.536057   -0.865600    2.641353
H      6.115153   -0.581657   -0.823375
H      5.652718   -1.290167   -2.403058
H      5.185511   -2.171628   -0.874554
H      0.484513    2.377824    0.923011
H     -0.086274    1.518571   -0.497806
H      1.939473    0.606670    1.602062
H      1.269100   -0.480560    0.313348
H     -1.722282    1.524623    1.444493
H     -0.422040    0.935999    2.506638
H      2.668880    2.229379   -0.149534
H      1.996341    1.192106   -1.412660
H     -3.817064   -2.706596    1.714893
H     -4.801810   -1.241412    1.779753
H     -3.722793   -1.924628   -0.546175
H     -0.439041   -1.256358    1.620153
H     -1.439454   -2.001109   -0.251629
H     -1.162663   -0.038137   -1.815892
H     -3.893193    2.598706   -1.119608
