33

C      1.205799   -0.137734   -0.562782
C      1.971287   -0.703671    0.635334
C      0.072212   -1.063841   -0.945224
C      3.107481    0.229939    1.013376
C     -3.631696   -1.152083   -0.094212
C     -3.025674   -0.340613    0.993417
C     -0.925993   -1.259234    0.173637
C      4.067714    0.407547   -0.101087
C     -1.601246   -0.038587    0.643411
C     -2.882483    1.779369    0.196948
N      4.336643    1.540263   -0.646802
N     -3.606361    1.012739    0.963721
N     -1.786746    1.011540   -0.331692
O      4.717165   -0.722778   -0.585138
O     -3.194862    3.115592   -0.018708
S     -2.272337   -2.291302   -0.472250
H      1.929475   -0.143967   -1.403332
H      0.882171    0.881437   -0.323953
H      2.371330   -1.709886    0.408240
H      1.318463   -0.800387    1.526128
H      0.557335   -2.044614   -1.190282
H     -0.419934   -0.747072   -1.885696
H      3.584563   -0.098373    1.956635
H      2.630609    1.232978    1.192482
H     -3.820828   -0.544836   -1.001694
H     -4.528966   -1.677380    0.268203
H     -3.155085   -0.786144    1.991072
H     -0.420319   -1.743850    1.037079
H     -1.124792    0.416605    1.535999
H      3.869825    2.419170   -0.313200
H     -1.300117    1.222440   -1.208499
H      5.243015   -0.705002   -1.464765
H     -4.167647    3.441735   -0.108489
