48

C     -4.042801   -1.401584    0.606837
C     -3.064281    0.666482    0.889120
C     -1.579918    2.816443   -2.747267
C      6.116549    2.035339    0.044108
C      6.159177    0.665821   -0.110288
C      4.880848    2.619079    0.229503
C      4.998752   -0.097532   -0.080031
C      3.733870    1.849299    0.257736
C     -1.672809   -2.717000    0.979262
C     -1.899043   -2.480825   -0.490019
C     -0.559498   -0.632513    1.679568
C      3.762934    0.481938    0.104913
C     -1.879725   -1.338055    1.568741
C     -2.125542   -0.964565   -0.620866
C      0.118713   -0.640488    0.339805
C     -0.787947   -0.349452   -0.817882
C      2.566216   -0.355543    0.130651
C     -0.824099    1.087859   -1.175613
N     -2.751609   -0.691446    0.647311
O      2.639296   -1.603455   -0.013320
O     -0.273667    1.955951   -0.475298
O     -1.491912    1.460890   -2.323200
O      1.294629    0.141690    0.310041
I      0.000000    0.000000    0.000000
H     -4.690919   -1.008768    1.443816
H     -4.586598   -1.188535   -0.324424
H     -3.958789   -2.471104    0.750470
H     -3.429803    1.111035   -0.071951
H     -3.942739    0.710552    1.571768
H     -2.296778    1.324182    1.266575
H     -1.044540    2.880866   -3.711460
H     -2.650069    3.047558   -2.954546
H     -1.125231    3.517364   -2.036390
H      7.007541    2.656519    0.024727
H      7.122031    0.183009   -0.257849
H      4.854426    3.705332    0.351230
H      5.047162   -1.184124   -0.203967
H      2.769110    2.314325    0.403485
H     -0.630035   -3.089745    1.184516
H     -2.333325   -3.487738    1.420580
H     -2.780632   -3.053446   -0.807388
H     -0.997218   -2.782833   -1.081787
H      0.074572   -1.281616    2.356518
H     -0.727440    0.356005    2.105548
H     -2.299040   -1.461485    2.584112
H     -2.842114   -0.746347   -1.409922
H      0.481807   -1.701591    0.187831
H     -0.339513   -0.857746   -1.725305
