47

C      6.222126   -0.205934    0.258106
C     -6.442096    1.416657    0.400609
C     -5.191718   -2.657159   -0.086672
C     -3.871287   -2.980483   -0.179332
C     -5.655556   -1.368292    0.070458
C      3.153236   -0.712245   -0.248126
C      3.627299    1.555907    0.436406
C      5.353025    0.287658   -0.823630
C     -2.948065   -1.948069   -0.110720
C      1.699816   -0.329319   -0.144650
C      2.272469    2.127461    0.089277
C     -4.744953   -0.342776    0.138903
C      1.313533    0.966869    0.009798
C     -3.392892   -0.653421    0.046186
C     -0.573620   -1.098809   -0.125691
C     -0.991711    0.207055    0.031218
C     -1.520549   -2.226873   -0.203396
C      0.780203   -1.377057   -0.215019
C     -0.066128    1.246788    0.100493
C     -2.424331    0.458489    0.121220
C      3.907623    0.517514   -0.654351
O      5.867141    0.512744   -1.905732
O      2.385105    2.788884   -1.111086
O     -1.090128   -3.412232   -0.348081
O      1.196639   -2.693621   -0.372794
O     -0.429205    2.535736    0.253185
O     -2.824850    1.634706    0.263613
O      3.342521    0.983088   -1.839641
O     -5.111506    0.985589    0.295909
H      7.274419    0.095197    0.139258
H      5.841465    0.233644    1.213994
H      6.143093   -1.320806    0.261095
H     -7.087488    0.697874    0.954067
H     -6.816704    1.649565   -0.611460
H     -6.524750    2.374690    0.984112
H     -5.912449   -3.475594   -0.141555
H     -3.496148   -3.990950   -0.303026
H     -6.708599   -1.132308    0.141912
H      3.510525   -1.167649    0.679914
H      3.210186   -1.413769   -1.130286
H      3.606220    1.057485    1.446093
H      4.413272    2.337429    0.415910
H      1.945635    2.797644    0.923811
H      1.830082    3.582979   -1.196962
H      2.135922   -3.000630   -0.446069
H     -1.204685    3.075717    0.344726
H      3.997861    1.380626   -2.453731
