47

C     -5.444494    0.866889   -1.163305
C      6.494125   -0.981908   -1.038920
C      5.088663    2.628146    0.528422
C      3.739117    2.803062    0.794917
C      5.538462    1.428405    0.010113
C     -3.205108    0.300948    0.877387
C     -3.490200   -1.553787   -0.760971
C     -5.413206   -0.196394   -0.098120
C      2.841846    1.763708    0.537269
C     -1.752991    0.047807    0.574169
C     -2.257261   -2.227087   -0.196606
C      4.670388    0.392332   -0.250643
C     -1.275044   -1.116091    0.065742
C      3.332427    0.586320    0.021307
C      0.496331    0.866252    0.548326
C      0.951422   -0.337496    0.027727
C      1.434340    1.971382    0.824687
C     -0.837273    1.065645    0.821484
C      0.078982   -1.370835   -0.231239
C      2.355092   -0.496451   -0.240792
C     -4.129376   -0.754218    0.384731
O     -6.451025   -0.610372    0.379537
O     -2.552175   -2.784114    1.046724
O      0.962435    3.035180    1.295133
O     -1.287242    2.278061    1.346195
O      0.410797   -2.589870   -0.738970
O      2.781546   -1.570778   -0.708437
O     -4.412494   -1.713864    1.364917
O      5.114888   -0.812439   -0.770063
H     -4.537674    0.847295   -1.786947
H     -6.298284    0.611756   -1.837936
H     -5.679334    1.858724   -0.738159
H      6.787171   -0.300399   -1.859831
H      7.065452   -0.679195   -0.144057
H      6.761742   -2.018090   -1.264250
H      5.770525    3.418859    0.724543
H      3.410640    3.736202    1.194870
H      6.587660    1.303310   -0.192987
H     -3.261889    0.336554    1.994464
H     -3.424082    1.304873    0.445953
H     -3.183655   -0.799261   -1.521697
H     -4.217850   -2.259551   -1.166159
H     -1.831491   -2.969757   -0.896630
H     -1.844784   -3.415390    1.329256
H     -2.242816    2.460684    1.564561
H      1.195767   -3.048620   -1.028117
H     -4.840069   -1.306427    2.161056
