16

C     -1.865090    0.770167   -0.649479
C      2.688853   -0.451304   -0.479243
C     -0.927393    0.185251    0.371038
C      0.492974    0.405848    0.010977
N     -1.171389   -1.237720    0.509735
O      0.960621    1.559914   -0.167538
O      1.349218   -0.657017   -0.139770
H     -2.604016    1.462015   -0.209213
H     -1.246388    1.395740   -1.347312
H     -2.382759   -0.002436   -1.254511
H      3.237251   -0.135570    0.436917
H      2.761946    0.418285   -1.178779
H      3.171532   -1.352859   -0.891939
H     -1.144607    0.654880    1.352594
H     -2.067152   -1.388514    1.011041
H     -1.253603   -1.626678   -0.457040
