53

C      2.476523    0.820230    1.698851
C      1.521989    0.588326    0.562593
C     -4.352554    1.258005   -0.174135
C     -3.693718    0.469260   -1.255953
C     -5.522136    0.656119    0.498962
C      3.920465    0.610339    1.383543
C      0.080740    0.881970    1.009011
C     -2.498016    1.337495   -1.722968
C      4.908579   -2.209768   -1.313157
C     -6.645219    0.373777   -0.458677
C      5.885165   -2.181939   -0.161919
C      4.204565   -0.766526    0.927978
C     -0.843818    0.645245   -0.128929
C      5.676288   -0.960902    0.652414
C     -7.764533   -0.199336    0.360686
C      7.371046   -0.668569   -0.801228
N     -6.220312   -0.649243   -1.403783
N     -1.596816    1.567836   -0.613996
N      7.179216   -1.935528   -0.761187
N      6.240692    0.034516   -0.239313
O     -0.920301   -0.618754   -0.715803
O     -8.140154   -1.356991    0.142880
O     -8.386415    0.537059    1.354396
O      8.543069   -0.099711   -1.332213
S      3.577270   -1.101289   -0.774007
H      2.183115    0.071342    2.491100
H      2.290425    1.809857    2.194957
H      1.828487    1.202164   -0.294667
H      1.472180   -0.509190    0.297821
H     -3.534830    1.487168    0.576387
H     -4.646515    2.264415   -0.593609
H     -3.337175   -0.503133   -0.872261
H     -4.320946    0.295402   -2.160244
H     -5.261608   -0.264335    1.092546
H     -5.939119    1.404157    1.239153
H      4.263070    1.396351    0.671319
H      4.477856    0.761517    2.348544
H      0.011617    1.965250    1.260696
H     -0.179703    0.279327    1.886838
H     -2.948392    2.304152   -2.039814
H     -1.986775    0.850058   -2.575567
H      4.447938   -3.223510   -1.445047
H      5.336711   -1.851040   -2.266405
H     -6.958463    1.308742   -0.925374
H      5.868875   -3.124691    0.423762
H      3.855187   -1.570968    1.557152
H      6.254897   -1.044389    1.570338
H     -6.625500   -0.414315   -2.336813
H     -6.544631   -1.612767   -1.103469
H      5.984159    0.996774   -0.476115
H     -1.099657   -0.759583   -1.698295
H     -9.049319    0.107823    1.975856
H      9.156498   -0.658201   -1.941052
