27

C      3.691882    1.244599    0.271455
C     -3.846224    1.504795    0.621661
C      1.203634    0.995794    0.275596
C     -1.234091    0.548789    0.271029
C     -2.126802   -1.633373   -0.228790
C      2.473806    0.586958   -0.383566
C      0.078977    0.069647    0.094956
C     -2.286054   -0.314669    0.103961
C     -0.814120   -2.101039   -0.402044
C      0.286343   -1.246487   -0.239350
C      1.647312   -1.713461   -0.416546
O     -0.662737   -3.393376   -0.727924
O      1.859076   -2.916214   -0.722906
O     -3.593671    0.156364    0.277758
O      2.696067   -0.818742   -0.243595
H      3.881219    0.654836    1.199618
H      3.444508    2.292132    0.510371
H      4.545129    1.203223   -0.426851
H     -3.570520    1.709280    1.676750
H     -4.881868    1.801001    0.457657
H     -3.212743    2.153004   -0.049117
H      1.375941    1.093892    1.386601
H      0.858910    1.999428   -0.046234
H     -1.341103    1.597630    0.534997
H     -2.934749   -2.325334   -0.364184
H      2.445624    0.893779   -1.449979
H      0.016254   -4.042458   -0.918089
