20

C      2.157506   -0.029434   -0.474413
C     -1.441229   -0.986904    0.078844
C     -0.018698   -1.115026   -0.380049
C     -1.956734    0.424603    0.003281
C      0.363434    1.044609    0.827285
C      0.951672   -0.290064    0.390493
C     -0.772741    1.325459   -0.095417
O     -0.725276    2.244851   -0.883999
H      3.108238   -0.158340    0.059454
H      2.144866    1.044119   -0.823690
H      2.156506   -0.626992   -1.412941
H     -1.568140   -1.424006    1.077354
H     -2.065048   -1.593317   -0.622300
H      0.265668   -2.185302   -0.272460
H      0.028239   -0.875224   -1.482548
H     -2.648442    0.594481   -0.846062
H     -2.449889    0.648865    0.981277
H      0.042302    0.988515    1.887936
H      1.125800    1.819076    0.709859
H      1.301966   -0.849970    1.278097
