20

C      2.865788   -0.836339    0.421689
C     -1.584353   -0.862267    0.110743
C      1.462810   -0.519611   -0.013685
C     -0.719530    0.253373    0.659909
C     -0.866550    1.448862   -0.201393
N     -1.695949    1.444027   -1.181478
N      0.642388   -0.099754    0.859476
O      1.091690   -0.685483   -1.331059
O     -0.110928    2.602353    0.033104
S     -1.429781   -2.352707    1.144968
H      3.143924   -1.770218   -0.115959
H      3.550306   -0.013890    0.141467
H      2.881903   -1.063297    1.507809
H     -1.262963   -1.062620   -0.928427
H     -2.650580   -0.513885    0.143642
H     -1.122795    0.488798    1.702800
H     -1.798450    2.279374   -1.783035
H      0.620167    0.083970   -1.834213
H     -0.531628    3.521643   -0.112802
H     -2.485470   -2.342331    2.085154
