16

C     -1.534978   -0.716472    0.528005
C     -0.661588   -0.569497   -0.681801
C      0.457988    0.423534   -0.489123
C      1.360101    0.041084    0.625158
N     -0.032730    1.768458   -0.332286
O      1.594862    0.870954    1.538983
O      1.972865   -1.195699    0.726238
H     -2.620183   -0.639476    0.239887
H     -1.404725   -1.751024    0.912311
H     -1.375577    0.061178    1.294106
H     -0.207265   -1.515751   -1.010928
H     -1.274702   -0.195888   -1.529451
H      1.036365    0.413412   -1.457343
H     -0.932950    1.881296   -0.822979
H      0.708317    2.436266   -0.674246
H      2.914201   -1.312374    1.133470
