31

C      3.364296   -0.923593    0.951371
C      2.865580    1.428483    0.730771
C     -1.525602    1.245867   -0.254984
C      0.990235    0.163214   -1.326877
C      2.457819   -0.233432   -1.197014
C      0.127848   -0.597043   -0.370448
C     -2.236294   -1.064087    0.290459
C     -3.668990   -0.781058   -0.003215
C      2.912118    0.055152    0.188973
C     -1.305674   -0.195246   -0.533499
O     -4.094706    0.500134    0.236692
H      3.696767   -0.714341    1.964687
H      3.396335   -1.929242    0.548990
H      2.179676    1.551644    1.582948
H      2.555265    2.151947   -0.067555
H      3.884171    1.710280    1.096981
H     -2.033018    1.397799    0.749654
H     -2.206796    1.639182   -1.065950
H     -0.643786    1.890864   -0.200851
H      0.955638    1.233018   -1.093017
H      0.726460   -0.056352   -2.387747
H      3.083345    0.386312   -1.870043
H      2.597297   -1.287803   -1.452366
H      0.440268   -0.433086    0.692729
H      0.281503   -1.693454   -0.539267
H     -2.028759   -0.967002    1.378936
H     -2.035641   -2.116030    0.001871
H     -3.819914   -0.969098   -1.100880
H     -4.331163   -1.491447    0.544302
H     -1.563857   -0.461079   -1.606592
H     -5.020423    0.559498    0.524487
