32

C      3.097956    2.060345   -0.986580
C      3.332483    0.271376    0.626136
C     -1.738898   -2.541856    0.057100
C     -4.017693    1.254838    1.826795
C      0.322429   -1.834085   -1.007113
C      1.356097   -0.898461   -1.474775
C      0.380016    0.489227    0.372767
C      2.593034    0.984743   -0.437555
C     -0.783060   -1.490206   -0.354108
C     -3.030462    0.974235    0.733796
C      1.277360    0.467928   -0.872543
C     -0.983566   -0.042223   -0.077689
O     -3.188558    1.418535   -0.427738
O     -1.888413    0.205577    0.955526
H      2.554391    2.574595   -1.760218
H      4.055214    2.457954   -0.687732
H      3.043686   -0.802845    0.707319
H      4.426199    0.400120    0.504344
H      3.069831    0.715854    1.622468
H     -2.762605   -2.188904    0.202807
H     -1.314312   -3.053404    0.949585
H     -1.747863   -3.314670   -0.761527
H     -4.030002    0.474218    2.593691
H     -3.769563    2.226293    2.329661
H     -5.010296    1.383379    1.347973
H      0.504611   -2.901703   -1.229485
H      1.245031   -0.802916   -2.576982
H      2.360135   -1.374893   -1.326721
H      0.319284    1.516002    0.739190
H      0.807603   -0.239538    1.069690
H      0.800411    1.179916   -1.609452
H     -1.280480    0.430569   -1.048629
