32

C     -3.857919   -0.115047    0.176723
C     -3.008273    1.427291   -1.475119
C      2.210871   -2.091976    0.475621
C      4.075438    1.852956   -0.549358
C     -0.196747   -2.106402    0.567653
C     -1.524894   -1.442937    0.584445
C     -0.440302    0.656880   -0.030930
C     -2.806584    0.270131   -0.537368
C      0.907338   -1.394401    0.490123
C      2.968671    1.366582    0.293750
C     -1.468989   -0.360245   -0.470867
C      0.854518    0.080848    0.421359
O      2.867169    1.598452    1.520538
O      1.967368    0.603158   -0.288050
H     -3.827315   -0.946068    0.891487
H     -4.817642    0.378694    0.090307
H     -2.274433    2.190747   -1.192096
H     -4.008070    1.865399   -1.382916
H     -2.836422    1.042875   -2.503329
H      2.949735   -1.596329   -0.195828
H      2.129352   -3.139745    0.103405
H      2.585999   -2.127612    1.527893
H      4.915696    1.117468   -0.499341
H      4.479798    2.791184   -0.080882
H      3.797580    2.025287   -1.591255
H     -0.186001   -3.209005    0.622723
H     -2.332526   -2.143400    0.253655
H     -1.742775   -0.952073    1.547639
H     -0.958887    1.251570    0.781377
H     -0.291132    1.437052   -0.837133
H     -1.141354   -0.765694   -1.452987
H      1.010731    0.434360    1.486487
