24

C     -2.197392    0.118592   -1.218568
C     -0.837171    0.263976   -0.591027
C     -0.432220   -0.980915    0.171533
C      0.708506   -0.539954    1.070971
C      1.820631   -0.086323    0.143544
C      1.283958    0.963810   -0.785238
O     -3.140744   -0.167352   -0.234775
O     -1.478764   -1.543905    0.876097
O      1.116433   -1.536260    1.937420
O      2.841445    0.501350    0.892713
O      0.973403    2.096703   -0.015451
O      0.158261    0.547680   -1.490556
H     -2.195346   -0.748464   -1.920686
H     -2.496575    1.003382   -1.775351
H     -0.886491    1.123108    0.131753
H      0.011210   -1.727646   -0.551122
H      0.367881    0.372064    1.616472
H      2.221732   -0.913126   -0.466635
H      2.076359    1.273333   -1.498104
H     -3.142119    0.584087    0.438841
H     -1.654370   -2.486891    0.634755
H      0.798402   -1.298023    2.848173
H      3.696118    0.505193    0.378560
H      0.386854    2.675582   -0.593319
