23

C      3.802021    0.348084   -1.278320
C      2.850963    0.368244   -0.127394
C     -2.863333    0.353513   -0.318271
C     -1.471555    0.158388   -0.873157
C     -2.947650   -0.754978    0.718482
C     -0.775067   -0.734747    0.127388
C      0.566976   -0.208481    0.446533
N     -1.600909   -0.665873    1.306550
O      0.825261    0.205412    1.602950
O      1.581468   -0.151365   -0.505642
H      3.703007   -0.629403   -1.786792
H      3.595147    1.208884   -1.933243
H      4.832135    0.482127   -0.878160
H      2.712094    1.442237    0.170730
H      3.243449   -0.149109    0.759634
H     -2.872355    1.314932    0.244578
H     -3.651119    0.305584   -1.069914
H     -0.956048    1.154145   -0.936582
H     -1.508051   -0.328578   -1.869462
H     -3.726995   -0.504810    1.456919
H     -3.083022   -1.747154    0.246329
H     -0.719936   -1.794005   -0.240500
H     -1.536480    0.326954    1.674435
