23

C      3.665499    0.185779   -0.090938
C      2.760160   -0.986214   -0.211803
C     -2.921825    0.787294    0.175775
C     -1.504259    1.248407   -0.081945
C     -2.813018   -0.688734   -0.113534
C     -0.718739    0.079151    0.606404
C      0.681047    0.201778    0.024669
N     -1.421754   -1.009567   -0.100311
O      1.078229    1.057503   -0.651023
O      1.510373   -0.899270    0.395006
H      3.434333    0.815751    0.786034
H      3.637139    0.789242   -1.047187
H      4.724960   -0.134650   -0.015513
H      3.296926   -1.874870    0.248307
H      2.644441   -1.273511   -1.296905
H     -3.611703    1.288805   -0.529416
H     -3.182415    0.997252    1.216624
H     -1.283444    2.204229    0.351312
H     -1.293817    1.189680   -1.183472
H     -3.234354   -0.916129   -1.133013
H     -3.381084   -1.246144    0.629824
H     -0.833024    0.101129    1.641496
H     -1.233671   -1.916911    0.444850
