27

C     -3.233263    0.989167   -0.332574
C      3.364972    0.043821    1.167200
C     -2.356799    0.154564    0.532339
C     -1.776130   -1.051198   -0.118653
C     -0.915298   -0.759560   -1.308953
C      0.265304    0.099824   -1.014729
C      1.213596   -0.483165   -0.002268
C      2.350828    0.536092    0.164452
O      2.959102    0.791544   -1.057253
H     -3.854762    1.633626    0.342584
H     -2.698235    1.687753   -1.000253
H     -3.933734    0.417618   -0.951867
H      4.155044   -0.580232    0.699132
H      2.861805   -0.556995    1.949735
H      3.874323    0.879542    1.692034
H     -1.548739    0.786660    0.954121
H     -2.959472   -0.187930    1.400391
H     -1.212867   -1.615456    0.653454
H     -2.607212   -1.709123   -0.435766
H     -0.668898   -1.701541   -1.831096
H     -1.549161   -0.176854   -2.030586
H      0.836102    0.227851   -1.958079
H     -0.065959    1.090752   -0.700599
H      1.629061   -1.445849   -0.301800
H      0.678811   -0.519577    0.972117
H      1.957279    1.496871    0.551040
H      3.234301   -0.048205   -1.520085
