19

C      3.324545    0.603598   -0.413606
C     -0.848086   -1.057198    0.751932
C     -2.269139   -0.517850    0.661826
C     -0.303792   -0.484070   -0.558964
C     -1.985344    0.857989    0.116071
C      1.176293   -0.477917   -0.507563
N     -0.880560    0.822176   -0.555408
O     -2.833909    1.934365    0.349156
O      1.746271   -1.599961   -0.508045
O      1.906496    0.689814   -0.461201
H      3.632516    1.089555    0.556247
H      3.681438   -0.434182   -0.406954
H      3.770836    1.193800   -1.237868
H     -0.799747   -2.140962    0.784890
H     -0.278575   -0.552702    1.567172
H     -2.795465   -1.100049   -0.095430
H     -2.758608   -0.471781    1.645821
H     -0.709141   -1.067422   -1.395670
H     -2.776030    2.712799   -0.292407
