36

C      2.950722   -0.520529    0.331532
C      1.913928    1.658187    0.043680
C     -2.201790   -2.619393   -1.614203
C     -1.082925    4.050908   -0.083304
C      0.093510   -2.174991   -0.954638
C      0.507621   -1.861358    0.460077
C     -1.765621   -0.653335   -0.195689
C      1.668603    0.187730   -0.140573
C     -1.204321   -1.527619   -1.263492
C     -1.122974    2.683758    0.486061
C      0.559953   -0.354894    0.701262
C     -0.780219    0.287268    0.450600
O     -1.564681    2.533417    1.642975
O     -0.717883    1.538682   -0.134731
H      2.836005   -0.792150    1.420863
H      3.177367   -1.391124   -0.285598
H      3.814691    0.179372    0.302832
H      1.461401    2.279176   -0.763097
H      1.628128    1.968844    1.056170
H      3.021531    1.870105   -0.032573
H     -3.223170   -2.196406   -1.605973
H     -2.094924   -3.495664   -0.941185
H     -2.018859   -2.938511   -2.677784
H     -0.545075    4.006564   -1.072429
H     -0.655476    4.796506    0.588702
H     -2.153446    4.337541   -0.287415
H      0.905841   -1.915527   -1.686461
H      0.038593   -3.298665   -1.005183
H     -0.273321   -2.259433    1.131611
H      1.506508   -2.274725    0.636230
H     -2.569596   -0.022603   -0.631397
H     -2.268155   -1.307061    0.551149
H      1.587637   -0.052106   -1.215068
H     -1.120949   -0.922667   -2.212474
H      0.899493   -0.265234    1.756907
H     -1.208149    0.465938    1.462996
