20

C     -2.067515   -0.217368    0.905221
C      2.825898   -0.249631   -0.089520
C      2.343144    0.976431    0.324328
C      1.974976   -1.234204   -0.551273
C      0.996886    1.223605    0.277257
C      0.621430   -0.974127   -0.594218
C     -1.352657    0.484241   -0.248232
C      0.112341    0.248338   -0.184486
N     -1.917376    0.030360   -1.496240
H     -3.119932   -0.313071    0.626970
H     -1.965811    0.323143    1.851164
H     -1.642734   -1.245433    1.048801
H      3.885802   -0.494372   -0.071450
H      3.016212    1.741770    0.684479
H      2.345904   -2.196687   -0.876992
H      0.633561    2.173364    0.598953
H     -0.081943   -1.714053   -0.947914
H     -1.538931    1.568409   -0.109688
H     -2.603294    0.740584   -1.811760
H     -2.465961   -0.871300   -1.378190
