36

C      3.572283    1.884756   -1.282961
C      1.837385   -2.073908    1.252624
C      3.210919   -2.108547    1.363912
C      2.027010   -0.085120   -0.064989
C     -4.440910    1.521275   -0.655366
C     -2.460136    1.922658    0.581774
C     -0.634010   -1.539072   -0.950406
C      1.249762   -1.062749    0.538821
C     -3.701070    2.344326    0.154581
C      3.992275   -1.153918    0.775743
C     -3.926958    0.265075   -1.037269
C     -2.128274   -1.442590   -0.966445
C     -0.222834   -1.026908    0.420374
C      3.388756   -0.142585    0.060803
C     -1.948534    0.693409    0.212825
C     -2.691163   -0.139913   -0.603335
O     -4.192918    3.603657    0.549686
O      5.392650   -1.204068    0.899127
O     -4.671523   -0.546713   -1.846542
O     -2.853787   -2.402832   -1.267066
O      4.149724    0.842014   -0.548715
O     -0.701198    0.262068    0.637570
H      2.773340    2.361232   -0.653807
H      4.317021    2.682874   -1.474839
H      3.086655    1.525913   -2.204062
H      1.207993   -2.836860    1.722387
H      3.684342   -2.919384    1.936444
H      1.532414    0.706463   -0.626018
H     -5.411890    1.833984   -0.998607
H     -1.856631    2.555974    1.222522
H     -0.275499   -2.556889   -1.120791
H     -0.253787   -0.864042   -1.743653
H     -0.689199   -1.698195    1.166570
H     -3.635178    4.176797    1.135815
H      5.808272   -1.956922    1.429179
H     -4.535305   -1.421259   -2.240685
