30

C     -1.485350   -1.182211    0.964917
C     -1.684254   -1.148228   -0.537684
C      2.742134   -1.939074    0.881541
C      0.461183    1.766498   -0.012162
C     -1.115291    0.257281    1.249214
C     -2.139723    0.273793   -0.857651
C      2.261286    0.539958   -0.090678
C     -2.236064    0.964948    0.474970
C      3.505056   -0.029281   -0.273368
C      1.247886   -0.135442    0.584089
N      4.504237    0.702490   -0.969080
N      3.701623   -1.259322    0.224075
N      1.551895   -1.357287    1.039265
N      1.720805    1.721223   -0.442420
N      0.137669    0.623166    0.631528
O     -3.386597    0.273840   -1.473291
O     -3.428468    0.558336    1.076225
H     -2.477053   -1.346343    1.477257
H     -0.749284   -1.906502    1.297723
H     -2.406041   -1.899205   -0.870664
H     -0.692449   -1.279485   -1.007832
H      2.940167   -2.945449    1.275212
H     -0.229308    2.590601   -0.145288
H     -1.172674    0.512778    2.318780
H     -1.407518    0.798683   -1.511687
H     -2.108007    2.041614    0.443368
H      4.334715    1.061946   -1.917351
H      5.413785    0.862881   -0.487289
H     -3.920567    1.025643   -1.135348
H     -3.883794   -0.147850    0.555361
