29

C     -3.353180    0.919445   -1.419957
C     -3.143755   -0.924895    0.309334
C      2.503513    1.389084    1.110735
C     -0.339814   -0.930442    0.057957
C     -1.170053   -0.003181   -0.745139
C      0.625365   -0.183296    0.933697
C      2.349120   -0.059015   -0.887137
C      3.254670   -1.087456   -0.367402
C     -2.478051    0.007348   -0.635399
C      1.573536    0.678147    0.151265
O      3.915078   -1.722664   -1.174259
H     -3.694689    0.332338   -2.312361
H     -2.767051    1.790176   -1.766518
H     -4.267978    1.218827   -0.854945
H     -2.836815   -1.957251    0.026479
H     -2.779970   -0.768713    1.347131
H     -4.241965   -0.859379    0.228965
H      3.283868    1.937553    0.516016
H      1.879298    2.122789    1.682906
H      2.989237    0.650829    1.801264
H     -0.953441   -1.572436    0.705449
H      0.205220   -1.592946   -0.667834
H     -0.688320    0.677563   -1.434596
H      1.138371   -0.836341    1.637792
H      0.001781    0.520559    1.557636
H      1.668743   -0.535795   -1.617018
H      2.950148    0.676489   -1.453256
H      3.401508   -1.346934    0.674344
H      0.975627    1.459595   -0.361039
