28

C     -3.084759    1.302864   -0.575291
C      3.991301    0.492480   -0.243000
C      3.549358   -0.774305   -0.508723
C      3.225255    1.418889    0.440377
C      2.270667   -1.123747   -0.062649
C      1.969946    1.035204    0.863264
C      0.127208   -0.549900    1.101268
C     -3.228065    0.194288    0.387000
C      1.476681   -0.237461    0.618286
C     -0.923098   -0.180178    0.102782
C     -0.765259   -0.881710   -1.178650
N     -2.202916   -0.502578    0.703185
O     -4.448841   -0.131612    0.975039
O      0.248404   -0.701197   -1.894807
O     -1.712640   -1.779575   -1.678458
H     -2.468763    1.058667   -1.447926
H     -4.109944    1.634024   -0.866391
H     -2.554631    2.143184   -0.049429
H      4.979486    0.776522   -0.582610
H      4.125722   -1.526130   -1.042969
H      3.636567    2.407134    0.617918
H      1.887265   -2.122951   -0.250391
H      1.378379    1.768252    1.397454
H     -0.067664    0.000916    2.051294
H      0.027753   -1.628089    1.363777
H     -0.910999    0.934902   -0.020578
H     -4.598874   -1.077491    1.336648
H     -1.817541   -1.950403   -2.671581
