36

C     -3.828834    2.344624   -0.424991
C     -1.916838   -2.339177    0.089516
C     -3.259959   -2.465252   -0.168209
C     -2.180810    0.012761   -0.033287
C      4.520754    1.319671   -0.315995
C      2.257021    1.809878   -0.846872
C      0.927623   -2.047551    0.266223
C     -1.366628   -1.088184    0.158682
C      3.581162    2.211949   -0.797612
C     -4.062159   -1.353652   -0.358172
C      4.133343    0.063097    0.101599
C      2.338007   -1.623676    0.467841
C      0.062266   -0.830355    0.429110
C     -3.534526   -0.090724   -0.293761
C      1.832235    0.566240   -0.439880
C      2.803703   -0.312616    0.041503
O      3.904291    3.488393   -1.232533
O     -5.408672   -1.511168   -0.615602
O      5.066844   -0.843607    0.587763
O      3.152316   -2.407456    1.017146
O     -4.339505    1.049427   -0.485125
O      0.506889    0.155287   -0.485953
H     -4.692928    3.029177   -0.195238
H     -3.098276    2.513294    0.389207
H     -3.331177    2.642820   -1.372025
H     -1.256944   -3.183241    0.243643
H     -3.677572   -3.451033   -0.219606
H     -1.768018    1.009839    0.016844
H      5.569646    1.625477   -0.272165
H      1.485350    2.481281   -1.219136
H      0.645660   -2.871148    0.926255
H      0.843324   -2.387627   -0.798416
H      0.150994   -0.494388    1.479185
H      3.915187    4.294454   -0.629046
H     -6.015911   -0.723730   -0.757753
H      6.042142   -0.593082    0.641359
