46

C     -4.183279   -0.402577   -2.117663
C     -3.632049    1.373497   -0.435717
C     -2.652558   -1.057615    1.364676
C      1.939048    1.683540    1.340489
C      4.488763   -0.186032   -0.045733
C      2.419560    0.958506    2.564911
C      4.368785    0.440703    1.318538
C      1.459008    1.219936   -1.051475
C     -3.086745    0.432324   -1.448643
C     -2.314299   -1.482615   -0.008738
C      1.896098    0.827196    0.324853
C      3.337157   -1.155253   -0.085067
C      2.339800   -0.473404    0.836687
C     -0.831093    0.437697   -0.600936
C     -1.943023   -0.431447   -0.996908
N      3.202233   -0.105832    1.945311
O     -3.359194   -2.231783   -0.576451
O      2.835815   -1.347096   -1.357421
O     -0.865896    1.212810    0.394609
O     -1.545572   -1.137776   -2.144681
O      0.333698    0.416798   -1.356174
H     -4.958035   -0.688070   -1.381029
H     -4.718556    0.229603   -2.881137
H     -3.749365   -1.246951   -2.660870
H     -3.185011    1.338173    0.556899
H     -3.551541    2.455175   -0.759060
H     -4.750330    1.207955   -0.405656
H     -3.725034   -0.789512    1.511372
H     -1.949281   -0.326997    1.761695
H     -2.523686   -1.969638    2.026310
H      1.687963    2.738176    1.365444
H      5.451082   -0.709236   -0.203491
H      4.388378    0.582040   -0.828281
H      1.595095    0.504480    3.123848
H      3.094168    1.589179    3.168981
H      4.275983    1.543153    1.244167
H      5.305106    0.225556    1.869955
H      1.140077    2.260332   -1.098105
H      2.231564    0.978977   -1.803997
H     -2.668564    1.061418   -2.288775
H     -1.445367   -2.191954    0.049544
H      3.659233   -2.082389    0.412657
H      1.523642   -1.151494    1.141163
H     -3.913929   -2.668677    0.112549
H      3.609697   -1.320108   -2.003968
H     -1.029547   -0.560766   -2.755749
