49

C      5.022784    1.473079    1.080705
C      5.364232   -0.874483    0.569535
C     -3.727161    0.402696    2.053524
C     -3.894947    1.256380   -0.219787
C     -1.450214    0.389598   -1.844541
C     -2.637763   -2.187217    0.161406
C     -3.729975   -1.153933    0.132706
C     -1.404560   -1.775745   -0.600072
C      2.438077    0.996783    0.587551
C      0.204742    1.700266    1.207759
C      4.728530    0.416263    0.060788
C      0.979014    0.871687    0.482816
C      3.272533    0.239496   -0.090063
C     -1.227456    1.544426    1.075879
C      0.389350   -0.134153   -0.409007
C      2.686476   -0.757944   -0.975553
C      1.239574   -0.895938   -1.091816
C     -1.749973    0.242646    0.652183
C     -3.258993    0.192240    0.627393
C     -1.089394   -0.318779   -0.564132
O     -1.987031    2.491224    1.316605
O      3.458268   -1.508361   -1.647290
O      0.753347   -1.871043   -1.960607
H      4.620470    2.477902    0.774649
H      4.573638    1.232813    2.064765
H      6.123804    1.567841    1.267121
H      5.655965   -1.476016   -0.313985
H      6.291891   -0.654494    1.145811
H      4.662845   -1.410248    1.241442
H     -3.841525    1.474152    2.311485
H     -4.691639   -0.156839    2.233894
H     -2.984420   -0.050363    2.770521
H     -3.202266    1.975857   -0.655766
H     -4.516490    0.819384   -1.056265
H     -4.639493    1.865061    0.357816
H     -2.473368    0.272573   -2.177149
H     -1.182436    1.458839   -1.831739
H     -0.786324   -0.065933   -2.637652
H     -3.040825   -3.102128   -0.321897
H     -2.426355   -2.457796    1.216497
H     -4.530251   -1.500209    0.817093
H     -4.183175   -1.114483   -0.878870
H     -0.564596   -2.323120   -0.128939
H     -1.479981   -2.160852   -1.651004
H      2.799366    1.775043    1.278045
H      0.672424    2.433144    1.844897
H      5.161391    0.716773   -0.912761
H     -1.461660   -0.473841    1.485876
H      1.063549   -1.862249   -2.921016
