41

C      2.245200    1.569046   -0.728182
C      2.153431   -0.134045    1.102116
C      2.837074   -0.739176   -1.121243
C      0.291230   -1.702565   -0.337566
C     -1.718807   -0.934963    1.432267
C     -1.194917   -1.856348   -0.661038
C     -1.962969   -2.412845    1.430213
C     -0.692403    1.651412    0.361184
C     -1.276779    2.741458   -0.466301
C     -3.031478   -0.192263   -0.526152
C     -1.411621    0.916231   -1.722986
C      1.848040    0.163019   -0.343617
C     -1.726835   -0.599854   -0.004492
C      0.517455   -0.254281   -0.813751
C     -0.702814    0.426839   -0.451779
O     -2.266999   -3.172184    2.384630
O     -1.547515    1.522562    1.463311
O     -1.750749    3.824254   -0.007231
O     -4.151018   -0.597329   -0.160824
O      0.634161   -0.401343   -2.223027
O     -1.793849   -2.862224    0.127489
O     -1.180064    2.307389   -1.775751
O     -2.786706    0.741130   -1.515843
H      3.164779    1.589066   -1.380664
H      1.499673    2.120481   -1.295549
H      2.572528    2.095898    0.199885
H      1.406703    0.212017    1.820112
H      3.169695    0.317486    1.311911
H      2.298820   -1.217757    1.299907
H      2.937732   -1.699448   -0.576865
H      3.843140   -0.280236   -1.131495
H      2.513574   -0.864120   -2.156899
H      0.842357   -2.420665   -0.951958
H      0.437755   -1.816172    0.732326
H     -2.557697   -0.502533    2.015799
H     -0.783827   -0.734455    1.952900
H     -1.406641   -1.912879   -1.724291
H      0.250615    2.012124    0.743908
H     -1.062096    0.389616   -2.625790
H     -1.451818    2.274792    2.097973
H      0.993641    0.432863   -2.620426
