49

C      5.359954    0.878063   -0.936865
C      5.217839   -1.518103   -0.393979
C     -3.906757    1.439892   -0.615511
C     -3.428766    0.085046   -2.567063
C     -1.315071    1.165017    1.384797
C     -3.293307   -1.046457    0.977953
C     -3.681365   -1.037223   -0.451038
C     -1.784410   -1.187102    1.093956
C      2.549842    0.734636   -0.723745
C      0.392224    1.579933   -1.410208
C      4.744476   -0.144024   -0.018037
C      1.075098    0.732760   -0.611567
C      3.263329   -0.059452    0.008977
C     -1.071154    1.587838   -1.322788
C      0.353282   -0.131585    0.302291
C      2.566796   -0.940926    0.933051
C      1.118196   -0.932888    1.035387
C     -1.672183    0.293870   -0.923786
C     -3.140037    0.245929   -1.059610
C     -1.100433   -0.044892    0.432226
O     -1.716724    2.596829   -1.565675
O      3.206456   -1.749335    1.683205
O      0.518998   -1.783032    1.919339
H      5.209993    1.873547   -0.482365
H      6.449977    0.672752   -0.971214
H      4.978751    0.813596   -1.970560
H      5.251798   -2.191035    0.496160
H      4.560788   -1.954142   -1.162982
H      6.270819   -1.438535   -0.756736
H     -3.586064    1.926542    0.300884
H     -3.999247    2.148612   -1.477564
H     -4.959921    1.088668   -0.421153
H     -4.486463   -0.242094   -2.640248
H     -3.325999    1.030543   -3.101084
H     -2.773997   -0.732428   -2.972715
H     -1.251897    2.064995    0.768071
H     -0.441993    1.235059    2.100688
H     -2.188486    1.045097    2.015651
H     -3.704644   -1.998605    1.428117
H     -3.707130   -0.238341    1.583817
H     -3.171458   -1.890374   -0.956203
H     -4.757768   -1.138030   -0.633332
H     -1.548654   -2.176682    0.662405
H     -1.607569   -1.111342    2.193229
H      3.040673    1.400023   -1.419144
H      0.904511    2.234609   -2.083712
H      5.103711    0.078715    1.008472
H     -1.263535   -0.500339   -1.623887
H      0.747521   -2.765604    1.974032
