36

C     -3.421794    2.163979   -0.337037
C     -2.010702   -2.173739    0.709526
C      2.779647    2.101865    1.271626
C      1.429669    1.749416    1.224426
C      3.738946    1.304725    0.651535
C     -1.267685    1.317218    0.302323
C      0.447745   -1.796597   -0.862044
C      3.084418   -1.728419   -1.157370
C     -2.933549   -0.320279   -0.524103
C     -2.470896    1.043500   -0.162958
C      1.829777   -1.289980   -0.723134
C      1.078237    0.608003    0.557218
C     -0.315037    0.195715    0.476866
C      3.371687    0.150241   -0.021783
C     -0.594846   -0.775487   -0.643692
C      2.041568   -0.146532   -0.036757
N      4.005277   -0.823182   -0.710348
N     -1.897723   -1.317978   -0.414382
H     -2.907121    2.970695   -0.903907
H     -4.379207    1.864914   -0.798039
H     -3.605809    2.598450    0.681803
H     -1.161754   -2.211939    1.385378
H     -2.161179   -3.224813    0.328272
H     -2.935945   -1.935853    1.287733
H      3.060276    3.010242    1.802500
H      0.727700    2.405042    1.723290
H      4.788453    1.567524    0.681225
H     -0.977426    2.319882    0.550239
H      0.358522   -2.186300   -1.904661
H      0.314775   -2.698335   -0.204424
H      3.280333   -2.620014   -1.738853
H     -3.842855   -0.584743    0.055613
H     -3.249214   -0.284438   -1.589437
H     -0.575220   -0.260350    1.478365
H     -0.666573   -0.148763   -1.579741
H      5.037507   -0.843669   -0.855267
