22

C      2.839254    0.583722    0.728827
C      1.473430   -0.071404   -1.235908
C      0.434088   -0.803522   -0.874932
C      1.697534    0.950270   -0.192496
C     -0.047681   -0.272649    0.419428
C     -1.552447   -0.241941    0.528586
C     -2.159047    0.651668   -0.474042
N     -2.149001   -1.537197    0.481981
O     -1.808893    1.848592   -0.635498
O     -3.165344    0.176270   -1.291179
O      0.488232    1.028879    0.470419
H      2.699747    1.059669    1.735296
H      2.954797   -0.525229    0.821748
H      3.771670    0.997473    0.291232
H      2.081010   -0.194527   -2.162248
H     -0.006840   -1.640619   -1.403664
H      1.905663    1.916559   -0.723743
H      0.408819   -0.846343    1.246117
H     -1.793851    0.197559    1.531333
H     -3.087996   -1.574904    0.053375
H     -1.516937   -2.309644    0.242302
H     -3.466207    0.607320   -2.146727
