85

C      6.054354   -1.771566   -0.934544
C     -5.369374   -0.237001    0.598441
C     -3.104629    6.777485    0.027168
C      0.534792   -1.309150    3.806407
C     -2.373659   -6.259492   -3.034133
C      3.205483    2.668366    1.096427
C      3.136668    2.902643   -1.251430
C     -3.748775    2.671349   -0.600219
C      1.924623    3.268716    1.175253
C      1.843839    3.505578   -1.134049
C     -3.592200    4.015818   -0.404148
C      4.895655   -0.149217    1.989008
C     -4.718502   -2.846836   -0.160734
C      6.075048   -0.480813    1.135764
C     -4.375245   -2.272684    1.233545
C      5.094208    1.698241   -0.256917
C     -3.235136    0.362757   -0.910727
C     -1.433144    2.163269   -0.275850
C      2.515948   -0.647986    2.097137
C     -3.086682   -4.033330   -1.527612
C      2.230990   -0.517436   -0.722053
C      3.794035    2.487156   -0.132418
C     -2.701517    1.701687   -0.547234
C      3.572041   -0.295907    1.283734
C     -3.324063   -2.880984   -0.785032
C      1.250581    3.675755    0.062457
C      3.442246   -0.220427   -0.133267
C      4.720933    0.252966   -0.700400
C     -2.993622   -0.679178    0.125137
C     -2.323569    4.438386   -0.140701
C      1.320932   -0.937327    1.484287
C     -1.252753    3.508471   -0.081093
C      1.140378   -0.890744    0.118802
C     -1.774710   -4.209035   -1.893706
C     -2.418938   -1.941336   -0.402821
C     -0.809604   -3.247535   -1.496518
C     -1.032275   -2.113711   -0.763204
N      5.778021   -0.587964   -0.232751
N     -4.081439   -0.845892    0.998108
O      0.437507   -3.664115   -1.999485
O     -2.107140    5.805435    0.067163
O      0.328367   -1.275686    2.430746
O     -1.421689   -5.313209   -2.634962
O     -0.060537    4.239095    0.190722
O     -0.103674   -1.230275   -0.374071
H      7.149672   -1.891717   -1.107853
H      5.588384   -2.675461   -0.519839
H      5.634114   -1.694661   -1.982946
H     -5.319510    0.827960    0.804050
H     -6.188605   -0.646090    1.282140
H     -5.587031   -0.448029   -0.433092
H     -3.199953    7.142899   -1.034193
H     -4.051386    6.453665    0.462397
H     -2.727447    7.676030    0.587107
H     -0.479431   -1.372564    4.315626
H      0.985088   -0.374287    4.195512
H      1.133233   -2.205492    4.081067
H     -3.359462   -5.817556   -3.333874
H     -2.575271   -7.060006   -2.303859
H     -1.990616   -6.816056   -3.955810
H      3.530337    2.451252    2.151239
H      3.406047    2.890515   -2.365281
H     -4.786019    2.376889   -0.830855
H      1.590945    3.357187    2.248456
H      1.461480    3.816531   -2.165854
H     -4.440893    4.698718   -0.459106
H      4.838903   -0.927401    2.856000
H      4.917430    0.794113    2.521892
H     -5.130924   -3.872324   -0.054027
H     -5.404944   -2.217144   -0.661733
H      6.457706   -1.491632    1.472426
H      6.956836    0.187296    1.308603
H     -3.483862   -2.810455    1.601930
H     -5.241370   -2.341604    1.870749
H      5.835222    2.144543   -0.998433
H      5.760388    1.611424    0.573492
H     -4.340510    0.392765   -1.034521
H     -2.967067    0.039312   -1.970016
H     -0.561959    1.424296   -0.208858
H      2.645198   -0.683033    3.184377
H     -3.900710   -4.708498   -1.779431
H      2.040495   -0.489991   -1.837703
H      4.829386    0.371011   -1.801416
H     -2.148651   -0.252605    0.780100
H      1.270989   -3.144140   -1.848693
