51

C     -5.706526    0.107263   -2.198241
C     -6.128221   -0.144000   -0.788456
C     -5.182929    0.219450    0.293726
C     -3.908895   -0.548760    0.331745
C     -3.035080   -0.446660   -0.857514
C     -1.752799   -1.243382   -0.674080
C     -0.991868   -0.711445    0.498055
C      0.285758   -1.544385    0.578476
C      1.095676   -1.066472    1.740341
C      1.520619    0.316101    1.782771
C      5.248820    0.339822   -1.089404
C      4.562667    1.346188   -0.205692
C      2.385145    0.969873    0.813639
C      4.852622   -0.958625   -0.550095
C      1.885231    1.004486   -0.564940
C      4.383378    0.972622    2.177219
C      3.848902    0.557995    0.872471
O      5.202146   -2.076379   -1.062604
O      1.073196    1.921864   -0.874886
O      2.201778    0.135854   -1.587826
O      5.010204    0.178603    2.955591
O      4.244995    2.266584    2.662281
O      4.077554   -0.764850    0.549313
H     -5.528559   -0.827754   -2.785059
H     -4.892760    0.828417   -2.256403
H     -6.593371    0.629969   -2.703734
H     -7.081776    0.456239   -0.589586
H     -6.419026   -1.235898   -0.650180
H     -5.699641    0.185075    1.311355
H     -4.911770    1.325944    0.155676
H     -3.380735   -0.204556    1.270923
H     -4.107415   -1.646220    0.567212
H     -3.519324   -0.925155   -1.752904
H     -2.808867    0.598971   -1.132642
H     -2.015790   -2.295896   -0.457990
H     -1.115322   -1.144524   -1.576900
H     -1.587762   -0.886518    1.422050
H     -0.778216    0.363523    0.421947
H      0.800843   -1.673461   -0.359277
H     -0.120167   -2.583165    0.872688
H      0.428323   -1.246661    2.652048
H      1.890103   -1.837488    1.886293
H      0.559477    0.946246    1.809414
H      1.916990    0.571443    2.837120
H      6.369013    0.411267   -1.022184
H      5.002965    0.472997   -2.165753
H      5.365061    1.997967    0.227876
H      3.890663    2.022917   -0.761340
H      2.442790    2.068708    1.131365
H      1.821829    0.155314   -2.513173
H      4.900068    2.640551    3.366981
