36

C     -0.561690   -1.031596    1.969354
C     -4.933542    0.693658    0.408178
C     -3.740239    1.257274    0.760898
C     -4.912040   -0.397912   -0.439636
C      4.340275    2.128633    0.255193
C      4.869553    1.418379   -0.801176
C     -2.560987    0.749795    0.284209
C     -3.717410   -0.896870   -0.910570
C      3.172345    1.801085    0.914005
C      4.158131    0.285092   -1.223739
C     -2.484303   -0.331985   -0.559398
C      2.515620    0.683510    0.460720
C      2.999150   -0.065970   -0.592752
C     -1.268215   -0.934617   -1.097710
C      1.274261    0.422772    1.235144
C      1.163697   -1.619652   -1.091292
C     -0.033702   -0.937610   -0.479222
N      2.395896   -1.231247   -1.118990
N      0.249713   -0.499240    0.857835
O      1.098285    1.048176    2.298818
O      0.934931   -2.843564   -1.722288
O     -0.322688    0.199358   -1.412139
H     -0.778951   -0.182818    2.634462
H     -1.432416   -1.571565    1.604220
H      0.112619   -1.746907    2.510205
H     -5.898053    1.081420    0.776902
H     -3.727420    2.100790    1.413951
H     -5.873145   -0.823009   -0.701556
H      4.863002    3.012626    0.611092
H      5.790184    1.723143   -1.279540
H     -1.613700    1.226566    0.575458
H     -3.737288   -1.755051   -1.574526
H      2.751225    2.343823    1.734979
H      4.582056   -0.262630   -2.051155
H     -1.395024   -1.531822   -2.051541
H      1.719870   -3.512035   -1.690422
