69

C      7.055700   -0.381055    1.451978
C      5.010809   -1.755344    2.095117
C     -3.867604   -3.440815   -1.834110
C     -3.881339    0.101871   -0.248688
C      2.521864    5.254380   -0.722490
C      4.912862   -0.073001    0.324027
C     -1.729961   -1.670243   -1.830759
C     -2.971624   -1.037107    1.694840
C     -1.498171    2.042193   -1.324265
C      5.615269   -0.696689    1.232511
C     -3.553590   -2.748331   -0.566453
C     -2.364739   -1.874865   -0.503440
C     -3.918037   -2.169615    1.714592
C     -1.232830   -0.317338   -2.171882
C      3.510481   -0.386766    0.117008
C     -4.305912   -2.894989    0.501934
C     -1.380391    1.288657    1.281954
C      1.399821   -0.060145   -1.015684
C     -1.415687    0.180797    0.289420
C      0.481358    1.074019   -1.080652
C      0.080458    1.769731    1.306303
C      1.157863   -0.762541   -2.315025
C      1.545908    3.099601   -0.207449
C     -2.684311   -0.614546    0.245139
C     -0.982657    0.618246   -1.076769
C      0.416424    2.146974   -0.112272
O     -4.412664   -2.532623    2.794332
O      2.921840   -1.282685    0.817717
O     -5.443326   -3.719597    0.480956
O     -2.234881    2.329074    1.055653
O      0.904347    0.817193    1.844878
O      1.992856   -1.532849   -2.796398
O      2.695881    2.735847    0.129106
O      1.396883    4.405484   -0.660171
O     -0.725595    2.871997   -0.554217
O     -0.033971   -0.514458   -2.951620
O      2.738574    0.258155   -0.839587
H      7.654486   -1.299953    1.294772
H      7.155228   -0.110456    2.526362
H      7.339998    0.420648    0.767824
H      4.203773   -1.328939    2.760072
H      4.678546   -2.636398    1.524968
H      5.760118   -2.153003    2.828077
H     -4.568951   -4.298664   -1.671959
H     -2.963133   -3.909399   -2.293139
H     -4.369493   -2.745417   -2.548000
H     -4.020611    1.036777    0.294053
H     -4.779861   -0.529616    0.025457
H     -3.940528    0.189087   -1.352690
H      3.324122    4.874313   -0.053592
H      2.272629    6.298045   -0.396134
H      2.915768    5.347707   -1.764791
H      5.368917    0.681566   -0.281215
H     -0.935111   -2.462724   -1.973718
H     -2.497320   -1.956988   -2.611406
H     -3.340619   -0.192019    2.296459
H     -1.984545   -1.359517    2.099233
H     -1.221317    2.249818   -2.399691
H     -2.563584    2.147374   -1.249600
H     -1.631509   -2.429269    0.159206
H     -1.936140    0.191036   -2.900187
H     -1.572960    0.887210    2.299233
H      1.141083   -0.853956   -0.257930
H     -0.642177   -0.564007    0.652981
H      0.599235    1.554211   -2.101094
H      0.063940    2.718494    1.894853
H     -5.789753   -4.029050    1.374834
H     -2.807611    2.528333    1.855053
H      1.365472    1.206142    2.636173
