53

C      0.466287   -1.826874    2.099111
C      6.595913    1.886645    0.631460
C      4.060488   -2.347598   -1.978441
C     -6.611417   -0.995886   -0.205867
C     -3.712912    3.736242    0.396545
C      2.464558    1.806375    0.313438
C      3.836273    1.813696    0.407881
C     -1.813310   -2.413704    0.416819
C     -0.409530   -2.189571   -0.109794
C      0.383117    0.731431   -0.443876
C      2.582662   -0.261717   -0.872116
C     -3.853692   -1.070461    0.181995
C     -2.402599    1.236869    0.481081
C      1.845708    0.763936   -0.328772
C     -2.493786   -1.099975    0.373551
C     -1.733434    0.033266    0.527201
C     -0.264200    0.013444    0.734609
C      4.575797    0.802348   -0.127047
C      3.939207   -0.247446   -0.774661
C     -4.523503    0.152266    0.136557
C     -3.778469    1.302604    0.288728
N      0.275845   -1.309303    0.783481
O      5.946208    0.834234   -0.018520
O      4.716820   -1.276567   -1.317340
O     -5.899230    0.198096   -0.056587
O     -4.439541    2.521294    0.244367
H      1.573000   -1.775148    2.318015
H     -0.012074   -1.224405    2.895327
H      0.162776   -2.877503    2.185436
H      7.703319    1.715043    0.573635
H      6.303525    1.923387    1.717037
H      6.408012    2.860900    0.127494
H      4.829769   -3.107222   -2.240039
H      3.590055   -1.948598   -2.897440
H      3.252266   -2.770431   -1.357968
H     -7.701120   -0.787400   -0.327464
H     -6.452082   -1.667745    0.679501
H     -6.256410   -1.527511   -1.099406
H     -3.074549    3.947692   -0.479595
H     -4.473829    4.530944    0.564824
H     -3.065626    3.635193    1.294448
H      1.846044    2.589359    0.724556
H      4.288821    2.662524    0.927432
H     -1.749878   -2.704577    1.497151
H     -2.356640   -3.188521   -0.162686
H     -0.524549   -1.662636   -1.084232
H      0.125034   -3.135161   -0.291856
H     -0.052302    1.770320   -0.510437
H      0.112706    0.248759   -1.405239
H      2.086856   -1.081940   -1.378009
H     -4.463069   -1.963636    0.059469
H     -1.820223    2.148098    0.600519
H     -0.033093    0.596571    1.648907
