85

C      3.587024    1.432021    1.985506
C     -5.336150   -2.047068   -2.895791
C      0.314860    5.358688   -1.442528
C     -4.142938    3.095141    3.390351
C     -1.484798   -3.907232   -0.767414
C     -1.689095   -2.283429    0.926220
C      5.276088   -2.767905   -0.415489
C     -0.179280   -4.215454   -0.297954
C     -0.377350   -2.617154    1.370010
C      4.947599   -4.078896   -0.342593
C      4.742739    3.433755   -0.146746
C     -5.812060   -0.558364    0.446459
C      5.257758    2.820091    1.119927
C     -6.057991   -1.286428   -0.807417
C     -3.625882   -2.558291   -0.637106
C      5.162998   -0.430239   -0.277680
C      3.261111   -2.006544    0.627164
C      2.389606    3.687777   -0.835780
C     -4.379630    1.135946    1.442184
C      2.106321    0.832035   -0.871058
C     -1.196929    0.419141   -1.345815
C     -2.241658   -2.934483   -0.150440
C      4.455357   -1.686453    0.060028
C      3.418467    2.837669   -0.540964
C     -4.502613    0.138519    0.454071
C      0.361222   -3.572018    0.756569
C      3.313651    1.414313   -0.549378
C     -2.297266    0.612025   -0.375777
C      4.631860    0.892300   -0.144262
C     -3.734486   -1.240611   -1.368375
C      3.720344   -4.337165    0.238006
C      2.895675   -3.325487    0.707617
C      1.204146    3.085299   -1.148528
C      1.050927    1.675579   -1.165382
C     -3.235284    1.846560    1.509841
C     -3.470362   -0.102873   -0.423399
C     -2.199973    1.579931    0.599728
N      4.797832    1.430499    1.240298
N     -5.103205   -1.054760   -1.864026
O      3.388141   -5.714939    0.311997
O     -1.091205    2.360486    0.771030
O      0.160167    3.970813   -1.453672
O     -3.100024    2.828575    2.476824
O     -0.266733    1.386403   -1.499307
O      1.689452   -3.867665    1.231925
H      3.419949    2.436977    2.478902
H      2.664265    1.222888    1.452715
H      3.637482    0.702522    2.829309
H     -6.045854   -2.844686   -2.562364
H     -4.403384   -2.470616   -3.307836
H     -5.847299   -1.519851   -3.726945
H     -0.565732    5.870556   -1.926278
H      1.186613    5.722135   -2.031734
H      0.445973    5.737925   -0.410008
H     -3.860955    3.953226    4.041298
H     -5.079363    3.329484    2.850002
H     -4.281607    2.219528    4.061600
H     -1.703703   -4.568962   -1.662132
H     -2.065854   -1.454741    1.608304
H      6.256024   -2.530161   -0.879228
H      0.271462   -5.052902   -0.921728
H     -0.090505   -1.990742    2.273794
H      5.583305   -4.882934   -0.705809
H      4.572883    4.536268    0.084742
H      5.481260    3.429438   -0.946967
H     -6.587184    0.277774    0.553941
H     -5.898383   -1.222919    1.340613
H      6.361264    2.825691    1.159778
H      4.890801    3.398740    1.988117
H     -6.197188   -2.380059   -0.614433
H     -7.046365   -0.923102   -1.241621
H     -4.110421   -3.236588   -1.375750
H     -4.368930   -2.557437    0.201950
H      6.211552   -0.468656    0.235068
H      5.573320   -0.491264   -1.362040
H      2.593195   -1.202911    1.100450
H      2.514643    4.776131   -0.819273
H     -5.200282    1.321538    2.134403
H      1.966358   -0.286200   -0.944648
H     -1.612860    0.182825   -2.374809
H     -0.669108   -0.537202   -1.050714
H      5.454739    1.550424   -0.669311
H     -3.056153   -1.187655   -2.195429
H      3.975471   -6.430134   -0.022006
H     -0.977862    3.065542    1.457203
