26

C      2.759134    0.341901    1.042480
C      1.436528   -0.048689    0.843219
C     -3.202187    1.042873    0.772344
C     -0.659090   -1.866764    0.312081
C      3.542301    0.493554   -0.064325
C     -0.419837   -0.669717   -0.556331
C     -2.538672    0.007706   -0.135329
C      1.737443   -0.111397   -1.442876
N      4.794075    0.857531    0.036676
N      3.004864    0.261461   -1.273959
N      0.947211   -0.268058   -0.382034
O     -4.546978    0.796285    0.933348
O      1.258463   -0.332946   -2.747138
O     -1.221692    0.356472   -0.216207
S     -2.421647   -1.595430    0.759022
H      3.167605    0.521740    2.014642
H      0.846784   -0.158626    1.742245
H     -3.022940    2.028842    0.266961
H     -2.641941    1.090322    1.722640
H     -0.028058   -1.924006    1.197117
H     -0.603264   -2.795422   -0.281252
H     -0.609937   -0.937117   -1.627983
H     -3.069465   -0.109393   -1.076701
H      5.174581    1.027252    0.976078
H     -5.045979    1.575024    0.623307
H      1.362696    0.416603   -3.438026
