37

C     -0.869525   -2.567559    0.936504
C      4.061990   -0.845663    0.442142
C     -1.028181    1.221611    1.090955
C     -3.161491    0.086184   -0.096420
C     -2.784955   -1.342574    0.111193
C     -2.206187    0.825537   -1.005878
C      0.996276   -0.914695   -0.030447
C      0.106216    1.627081   -1.104067
C     -1.337538   -1.571045    0.232932
C      3.160044    0.100359    0.265687
C      1.990623    0.025542   -0.645196
C     -0.409023   -0.659229   -0.450903
C      1.538542    1.435716   -0.753294
C      3.091328    1.407902    0.899800
C     -0.840843    0.777461   -0.330646
O      3.936053    1.858604    1.702735
O      1.925380    2.059465    0.454250
H      0.179366   -2.804837    1.076349
H     -1.567430   -3.229490    1.433642
H      3.985588   -1.772427   -0.100554
H      4.899498   -0.728348    1.127867
H     -1.829905    1.989914    1.147549
H     -0.123929    1.674951    1.530808
H     -1.324683    0.380733    1.761035
H     -3.279778    0.576904    0.874196
H     -4.167143    0.104082   -0.591354
H     -3.211553   -2.022593   -0.667113
H     -3.248390   -1.670234    1.081799
H     -2.175788    0.267535   -1.965828
H     -2.578561    1.853894   -1.111444
H      1.094373   -0.984096    1.072689
H      1.266585   -1.943568   -0.414958
H     -0.012652    1.358957   -2.187748
H     -0.120258    2.711944   -1.049059
H      2.370119   -0.322277   -1.626583
H     -0.471085   -0.907590   -1.551566
H      2.146921    1.941849   -1.559076
