35

C     -1.624559   -2.550459    0.135723
C     -1.375231    2.791393    0.820001
C      4.035588   -0.057358    0.687904
C      0.586861   -2.264139   -0.585045
C     -2.969188    1.249471   -0.320206
C     -2.739785   -0.249929   -0.202622
C      1.479730   -1.518842    0.385324
C     -0.781741   -1.715666   -0.450942
C     -1.597627    1.739431    0.051685
C      2.903400    0.483081    0.269167
C     -1.353105   -0.442070   -0.855285
C      1.664854   -0.155764   -0.245529
C     -0.653613    0.806725   -0.614813
C      0.609786    0.814615    0.171177
C      2.619874    1.926548    0.223645
O      3.465555    2.829209    0.450175
O      1.260945    2.070717   -0.112572
H     -2.667160   -2.361135    0.335585
H     -1.277662   -3.541339    0.468537
H     -2.213268    3.370003    1.231802
H     -0.395550    3.129306    1.078462
H      4.176735   -1.127751    0.693902
H      4.830839    0.553848    1.027663
H      0.998302   -2.038510   -1.612360
H      0.633899   -3.354803   -0.404617
H     -3.211189    1.454511   -1.378896
H     -3.734521    1.598461    0.394393
H     -2.651816   -0.438977    0.884977
H     -3.510467   -0.822418   -0.702635
H      2.397972   -2.094286    0.488324
H      0.933787   -1.419399    1.366462
H     -1.597408   -0.526863   -1.966809
H      1.750652   -0.236859   -1.342593
H     -0.430596    1.308967   -1.614296
H      0.435708    0.790278    1.244312
