53

C     -0.473122    1.392720   -3.006550
C     -0.457290   -1.017101   -3.230669
C      5.364148    1.736136    2.066050
C      6.264084    1.040050    2.845778
C      3.467377    1.617288    0.601591
C      1.403860    1.378262   -0.981222
C      3.351134   -1.067319    0.814122
C     -5.134275   -1.603259   -0.243818
C      4.399097    0.986867    1.398734
C      2.493031    0.939125   -0.081031
C      4.333233   -0.386277    1.502412
C      2.407455   -0.429330    0.006859
C     -3.760393   -1.265089    0.340962
C      1.022089    0.107239   -1.666074
C      6.151396   -0.324027    2.911950
C     -3.771408    0.256442    0.528451
C     -2.516053    0.549710    1.364069
C     -1.423876   -0.411009    0.951988
C     -1.608743   -0.897448   -0.467567
C     -0.378098    0.066234   -2.206872
O     -5.226984   -2.930070   -0.616031
O      7.000998   -0.935146    3.642870
O     -4.915253    0.700002    1.141263
O     -2.136219    1.864916    1.291404
O     -1.349625   -1.472345    1.854433
O      1.344888   -0.889522   -0.768788
O      5.219397   -0.977543    2.259577
O     -2.833673   -1.533580   -0.634830
O     -1.388389    0.134587   -1.319412
H     -1.384715    1.340709   -3.634700
H      0.448077    1.558323   -3.577319
H     -0.614260    2.209692   -2.283931
H      0.433081   -0.898025   -3.905757
H     -0.349037   -2.037722   -2.802488
H     -1.338573   -0.931675   -3.897213
H      5.398686    2.828413    1.969665
H      7.016769    1.618060    3.366968
H      3.548124    2.711344    0.540995
H      1.750923    2.164302   -1.695613
H      0.558532    1.738181   -0.364065
H      3.290860   -2.147246    0.889073
H     -5.939041   -1.419975    0.507614
H     -5.363580   -0.959676   -1.110629
H     -3.601512   -1.752001    1.299693
H      1.687911   -0.001117   -2.582450
H     -3.598868    0.709178   -0.476271
H     -2.793215    0.313204    2.411404
H     -0.460980    0.121197    1.029272
H     -0.848479   -1.685968   -0.644799
H     -5.491709   -3.497875    0.130707
H     -5.518149    1.117476    0.448328
H     -2.929727    2.417827    1.499869
H     -0.749901   -2.147142    1.442021
