100

C      1.893417    2.621156   -1.419415
C     -1.392495    0.046236   -3.149193
C      1.003584    1.875284   -0.675303
C     -0.661316   -0.200183   -1.973917
C      3.233214    2.435856   -1.350535
C     -2.754878    0.199824   -3.156750
C      0.096182   -0.092084    3.261410
C     -0.617440   -2.375262    2.012573
C      1.907334   -0.629671    4.794412
C     -2.674927   -3.155168    2.996897
C      8.601982   -0.891182   -2.432736
C     -8.858637   -1.489118   -2.480360
C      0.575472   -0.351713    4.553272
C     -1.298819   -3.239626    2.868245
C      1.484102    0.914615    0.159222
C     -1.323983   -0.291189   -0.778623
C      1.051001   -0.134890    2.248182
C     -1.350626   -1.444046    1.308178
C      2.832422   -0.657083    3.768405
C     -3.394363   -2.232030    2.287035
C      3.794537    1.453379   -0.489189
C     -3.432607    0.101201   -1.961282
C      8.085106   -0.158797   -1.222018
C     -7.970404   -0.403703   -3.119253
C      0.674404   -0.141365    0.794576
C     -0.724751   -0.295060    0.556861
C      2.378982   -0.394535    2.471249
C     -2.718336   -1.356405    1.411976
C      2.854310    0.717646    0.257540
C     -2.699769   -0.151234   -0.780673
C      9.083448    0.863828   -0.795498
C     -8.659346    0.916210   -2.855024
C      3.374666    0.017968    1.454931
C     -3.493670   -0.683615    0.363558
C      8.526947    2.266560   -0.914131
C     -7.688043    2.069738   -3.032019
C      7.212725    2.404208   -0.173169
C     -6.452631    1.773571   -2.259583
C     -0.361839   -0.327134    5.670242
C     -0.512612   -4.228863    3.587648
C      6.366600    1.136238   -0.394019
C     -5.812934    0.454497   -2.719184
O      7.659221   -1.837692   -2.846963
O     -8.328651   -2.750518   -2.744942
O      4.165073   -0.927453    3.972675
O     -4.779732   -2.089283    2.367518
O      9.516602    0.592162    0.506447
O     -9.673218    1.074763   -3.787976
O      4.575024   -0.218793    1.614594
O     -4.725488   -0.572480    0.435138
O      8.392176    2.603154   -2.253083
O     -8.304291    3.205873   -2.475471
O      7.450090    2.655829    1.163613
O     -5.528311    2.809159   -2.422011
O      0.008267   -0.528771    6.858161
O     -1.696408   -0.072137    5.392334
O      0.731882   -4.310347    3.449519
O     -1.106087   -5.144884    4.474183
O      5.086811    1.296210   -0.443463
O     -4.767189    0.231089   -1.840090
O      6.887471    0.489614   -1.559581
O     -6.744284   -0.546665   -2.559955
H      1.522522    3.394281   -2.091845
H     -0.763894    0.102084   -4.057645
H     -0.036394    2.095432   -0.748680
H      0.389336   -0.350521   -2.027276
H      3.948886    3.009244   -1.937196
H     -3.258561    0.390859   -4.075572
H     -0.914211    0.152840    3.068397
H      0.456073   -2.451028    1.872766
H      2.270684   -0.832126    5.791711
H     -3.177428   -3.834410    3.666933
H      8.774147   -0.220477   -3.307847
H      9.567871   -1.401367   -2.223193
H     -8.993206   -1.288223   -1.401092
H     -9.859597   -1.435682   -2.939211
H      7.900898   -0.927874   -0.424124
H     -7.928699   -0.665101   -4.204850
H      1.171093   -1.120078    0.387787
H     -1.225344    0.641185    1.064253
H      9.988302    0.775853   -1.430887
H     -9.077142    0.872340   -1.816649
H      9.256611    2.954785   -0.455552
H     -7.550469    2.243569   -4.103872
H      6.661296    3.255203   -0.601821
H     -6.711874    1.637443   -1.190436
H      6.740036    0.449586    0.424464
H     -5.533072    0.523701   -3.797559
H      7.960270   -2.162509   -3.738399
H     -7.644851   -2.935364   -2.052921
H      4.506333   -1.130456    4.916764
H     -5.291485   -2.699023    2.999362
H      9.967743    1.421899    0.826692
H    -10.120930    0.228578   -4.011855
H      7.926321    3.454108   -2.332258
H     -8.030136    3.313622   -1.521220
H      6.547116    2.698504    1.614912
H     -5.237575    3.084662   -1.519944
H     -2.383111   -0.013946    6.150891
H     -0.812529   -6.134477    4.477303
