33

C      1.968677    0.159900   -1.510827
C      3.193314    0.541233   -1.982419
C     -1.214589    0.439202   -0.545651
C     -3.469658    1.517582   -0.623490
C      1.198644   -0.573006    1.833211
C     -2.484205    0.467698   -0.197985
C      1.843506   -0.089696   -0.158898
C     -0.566864   -0.724990    0.053583
C      2.933346    0.046919    0.675956
C     -2.849053   -0.685794    0.698351
C     -1.466798   -1.060079    1.222286
C      4.168555    0.437198    0.165261
N      5.179983    0.561537    0.955327
N      4.245426    0.669051   -1.151057
N      2.504439   -0.259503    1.907964
N      0.763097   -0.476261    0.565267
O     -2.865841    2.462060   -1.437009
O     -3.407945   -1.726078   -0.019196
O     -1.378803   -2.358731    1.642229
H      1.088580    0.039158   -2.124873
H      3.319672    0.744950   -3.048352
H     -0.777617    1.223117   -1.201093
H     -4.287255    1.036402   -1.224826
H     -3.908731    1.975773    0.271965
H      0.592154   -0.865893    2.703223
H     -0.571999   -1.624045   -0.600379
H     -3.485214   -0.281290    1.489351
H     -1.248647   -0.335929    2.032074
H      5.073440    0.370214    1.975063
H      5.190142    0.962962   -1.513211
H     -3.035397    2.297871   -2.405650
H     -4.310180   -1.895458    0.386598
H     -1.934180   -2.996076    1.167207
