52

C      4.819269    1.742071    0.118902
C     -0.676953   -1.923558    0.379939
C     -3.388716    1.753599   -0.056183
C     -2.386442   -0.691156   -2.100051
C      3.176742   -0.961801   -1.113949
C      1.748123   -1.391031   -1.096496
C     -0.734984    1.300000    1.207426
C     -0.978565   -0.970263   -1.820187
C     -3.318304   -0.520297   -0.952626
C      0.528919    0.725968    1.790066
C      2.357787    1.505975    0.383950
C      2.545787   -0.662499    1.273378
C      3.726049    1.025835    0.235951
C      3.668018   -0.457813    0.240921
C     -1.286359    0.527991    0.060435
C      0.914404   -0.287951   -0.482762
C     -3.291414   -0.137712    1.422920
C     -0.545202   -0.675795   -0.375163
C     -2.784712    0.353269    0.143719
C      1.504142    0.279090    0.750638
O     -2.667959   -0.475360    2.435353
O     -4.696017   -0.246368    1.529334
H      4.713208    2.836119    0.131525
H      5.809810    1.293942    0.011661
H     -0.109648   -2.036298    1.300401
H     -1.713762   -2.251078    0.588208
H     -0.292363   -2.749938   -0.300301
H     -2.638047    2.538103    0.070186
H     -3.814752    1.848969   -1.084403
H     -4.212440    1.944554    0.640154
H     -2.822837   -1.504038   -2.753696
H     -2.485403    0.233929   -2.742137
H      3.799245   -1.850340   -1.361535
H      3.400213   -0.214975   -1.920046
H      1.677013   -2.350952   -0.598072
H      1.414100   -1.486655   -2.150579
H     -1.439697    1.451024    2.056393
H     -0.466573    2.366915    0.929101
H     -0.739317   -2.033765   -2.029747
H     -0.330083   -0.392160   -2.543670
H     -3.687923   -1.511371   -0.549300
H     -4.260653   -0.066079   -1.365378
H      0.282556   -0.039329    2.555524
H      1.025176    1.539912    2.394014
H      2.016595    1.889003   -0.617705
H      2.211460    2.327421    1.089546
H      2.288564   -1.716592    1.238516
H      2.936382   -0.321662    2.253867
H      4.596195   -0.934351    0.557784
H     -1.163361    1.217027   -0.842606
H      0.911166    0.527675   -1.270252
H     -5.138435   -0.367201    2.437641
