100

C      2.923426    2.144189   -1.714478
C     -2.912084    0.819595    2.712485
C      1.808657    1.552695   -1.181381
C     -1.768688    0.572636    1.990794
C      4.139422    1.767843   -1.333825
C     -4.140918    0.899175    2.078469
C     -0.193513   -2.149005    1.277586
C      0.220586   -0.980716   -2.208895
C      1.140562   -3.759395    2.324076
C     -1.203644   -1.417538   -4.090580
C      9.283141    1.189556    2.628723
C     -9.668658   -0.912103    0.637939
C     -0.093132   -3.360324    1.915844
C      0.029242   -1.502590   -3.479486
C      1.876328    0.550057   -0.234459
C     -1.786636    0.393241    0.613965
C      0.877233   -1.296559    1.018445
C     -0.785914   -0.356674   -1.491740
C      2.284381   -2.958514    2.098070
C     -2.228748   -0.809280   -3.407993
C      4.324096    0.740954   -0.367403
C     -4.203471    0.725215    0.718660
C      8.651199    0.615494    1.356671
C     -8.674937    0.195226    0.899055
C      0.702575    0.029051    0.460868
C     -0.578399    0.309120   -0.216959
C      2.111850   -1.730118    1.435466
C     -2.003957   -0.293298   -2.120919
C      3.138191    0.168263    0.143327
C     -3.022039    0.471887    0.018453
C      9.365270    1.205797    0.149172
C     -9.298457    1.564998    0.828848
C      3.313413   -0.998625    1.010089
C     -3.211612    0.139873   -1.384393
C      8.423426    1.127112   -1.045123
C     -8.565943    2.490314   -0.123578
C      7.625686   -0.120884   -0.896204
C     -7.093289    2.488394    0.169058
C     -1.283700   -4.198564    2.148445
C      1.146443   -2.143880   -4.153762
C      6.716371    0.038453    0.345749
C     -6.655781    1.054967    0.501737
O      9.212633    2.602605    2.585628
O    -10.698917   -0.773790    1.601570
O      3.490378   -3.413397    2.532764
O     -3.508962   -0.689088   -3.974266
O     10.458875    0.397135   -0.127980
O     -9.138339    2.142355    2.112454
O      4.412197   -1.390342    1.394858
O     -4.316350    0.204705   -1.968595
O      7.681397    2.284273   -1.124881
O     -8.714253    2.088599   -1.451418
O      8.426079   -1.222960   -0.787328
O     -6.752974    3.354533    1.202680
O     -1.191088   -5.302259    2.731041
O     -2.540028   -3.784342    1.726444
O      2.251868   -2.221419   -3.595065
O      0.967165   -2.661828   -5.412786
O      5.535417    0.405761   -0.023788
O     -5.385277    0.797963    0.027798
O      7.331282    0.983745    1.237618
O     -7.612338    0.161892    0.001821
H      2.811920    2.941281   -2.469629
H     -2.863811    0.957971    3.805403
H      0.877490    1.892575   -1.540968
H     -0.834867    0.509893    2.518625
H      5.019775    2.210886   -1.732800
H     -5.027089    1.100152    2.673015
H     -1.154547   -1.860857    0.930596
H      1.175311   -1.090817   -1.750244
H      1.308383   -4.712190    2.843628
H     -1.366089   -1.820996   -5.087044
H     10.359561    0.933998    2.613598
H      8.745606    0.861631    3.523664
H     -9.200957   -1.885558    0.884461
H    -10.037812   -0.921658   -0.383455
H      8.713237   -0.483567    1.403713
H     -8.193545   -0.003306    1.906092
H      0.667584    0.721550    1.395835
H     -0.467910    1.431859   -0.515227
H      9.623416    2.254280    0.354408
H    -10.383473    1.529582    0.545305
H      9.060957    1.089530   -1.956764
H     -9.013716    3.506724   -0.009223
H      6.968970   -0.294283   -1.796646
H     -6.521483    2.833927   -0.731631
H      6.854537   -0.933835    0.917601
H     -6.694151    0.995618    1.606863
H      8.237369    2.818347    2.565463
H    -11.576942   -0.578271    1.142410
H      4.396139   -3.167071    2.565634
H     -3.738814   -1.032062   -4.874513
H     11.286573    0.846313    0.152928
H     -9.796394    1.773777    2.724159
H      7.644569    2.792272   -0.265369
H     -8.462075    2.773054   -2.090383
H      9.211855   -1.109317   -1.397863
H     -6.645121    2.770293    2.016244
H     -3.154992   -4.483328    1.289632
H      1.533797   -3.398568   -5.811544
