42

C      5.582606   -1.200479   -0.543997
C     -3.222592    0.287504   -0.008618
C     -3.110314   -0.637460   -1.175343
C     -2.278913    0.007533    1.095075
C      4.170867    0.851164   -0.252665
C      3.221079   -1.137389   -1.168892
C      2.981741    1.523968   -0.355644
C      2.024547   -0.453819   -1.270355
C     -4.101316   -0.263895   -2.250667
C     -0.057550   -1.546642    2.665702
C      4.300868   -0.458470   -0.649510
C      1.892339    0.869127   -0.869693
C     -0.821082    0.121906    0.781506
C      0.002871   -0.221464    2.006388
Cl     1.038423   -1.572551    4.056173
N     -3.896283    1.076449   -2.743171
N     -0.506713    1.471656    0.427541
O      0.731545    0.629722    2.448962
O      0.695926    3.161548   -1.203281
O     -0.372485    1.251591   -2.235233
S      0.337404    1.702968   -1.020415
H      6.403831   -0.533259   -0.195314
H      5.852302   -1.621725   -1.527852
H      5.475723   -2.048902    0.172550
H     -3.195943    1.334176   -0.376501
H     -4.258739    0.158748    0.407644
H     -3.445490   -1.650047   -0.793928
H     -2.117196   -0.699640   -1.637686
H     -2.485344   -0.975836    1.556075
H     -2.485201    0.755063    1.916733
H      5.016161    1.391761    0.156915
H      3.287050   -2.168258   -1.491207
H      2.862553    2.551721   -0.048909
H      1.158058   -0.951923   -1.672225
H     -3.996390   -0.946071   -3.123007
H     -5.160274   -0.392653   -1.884168
H     -1.104564   -1.723610    3.008262
H      0.244452   -2.361032    1.964392
H     -0.498347   -0.605718    0.025647
H     -4.508319    1.173800   -3.597447
H     -4.330345    1.730078   -2.028370
H     -1.326947    2.120361    0.505603
