88

C      6.574889    0.573208    1.844312
C     -2.026488   -3.448149   -2.420598
C     -4.056984    5.007231    2.064009
C      1.448110   -1.463765   -3.927815
C     -3.130065   -4.195860    4.034408
C      0.884771   -3.046301    2.581197
C      2.186399    3.529769    1.448732
C      2.592406    3.135348   -0.852278
C     -4.190677    1.530611   -0.135079
C      0.832510    3.846305    1.126997
C      1.221648    3.462739   -1.121224
C     -4.160763    2.675931    0.604531
C      5.072255    0.685190   -1.530142
C     -4.504273   -2.948178   -0.691587
C      6.069706    0.428254   -0.489045
C     -4.298542   -2.778107   -2.153098
C      4.462607    2.659193    0.751938
C     -3.509847   -0.159070   -1.687101
C     -2.086323    1.953238   -1.214251
C      2.904081   -0.331846   -2.019417
C     -3.321157   -3.154156    1.423786
C      1.984385    0.159590    0.623044
C      3.048122    3.171312    0.436729
C     -3.176836    1.135635   -1.051414
C      3.720472    0.266627   -1.054464
C     -3.313752   -2.588110    0.140890
C      0.371324    3.805485   -0.131984
C      3.270515    0.508070    0.249347
C      4.361241    1.145236    1.050245
C     -2.498980   -1.264516   -1.689239
C     -3.047048    3.461146    0.409111
C      1.639043   -0.675160   -1.644804
C     -2.036910    3.108971   -0.472802
C      1.153281   -0.443865   -0.341705
C     -2.192636   -2.902011    2.170203
C     -2.268031   -1.835050   -0.344986
C     -1.140221   -2.147359    1.674646
C     -1.095487   -1.575642    0.418471
N      5.582735    0.445803    0.826269
N     -2.961673   -2.374285   -2.516414
O     -3.033215    4.647406    1.179250
O      0.901193   -1.265067   -2.666622
O     -2.104033   -3.427817    3.478898
O     -0.107957   -2.037579    2.635297
O     -1.000952    4.097922   -0.461992
O     -0.150161   -0.858233   -0.151179
H      6.161246    1.257504    2.637628
H      6.900074   -0.396884    2.273116
H      7.437897    1.117054    1.412123
H     -1.613583   -3.638617   -1.432115
H     -1.169993   -3.354437   -3.133264
H     -2.529524   -4.406153   -2.745002
H     -5.020901    4.964426    1.504372
H     -4.041527    4.421334    2.991724
H     -3.930816    6.077888    2.342314
H      0.712481   -1.928190   -4.618660
H      1.802867   -0.501325   -4.401170
H      2.373412   -2.102456   -3.858667
H     -3.897075   -3.477839    4.438567
H     -2.719017   -4.704865    4.932465
H     -3.559340   -4.957220    3.372783
H      0.592578   -3.905213    1.938723
H      1.778778   -2.583052    2.087884
H      1.122859   -3.450405    3.572494
H      2.327895    3.641798    2.567029
H      3.050211    2.902578   -1.854623
H     -5.084729    0.892486    0.013816
H      0.262094    4.136132    2.074937
H      1.037889    3.394590   -2.235073
H     -4.947126    2.951360    1.295231
H      5.087207    1.659502   -2.046199
H      5.320597   -0.038153   -2.389330
H     -4.656389   -4.064829   -0.493474
H     -5.451457   -2.516003   -0.330762
H      6.568300   -0.556330   -0.662988
H      6.900673    1.184024   -0.599993
H     -4.519118   -3.723969   -2.684831
H     -5.024379   -2.033835   -2.548971
H      5.127918    2.787654   -0.077745
H      4.941725    3.079003    1.656893
H     -3.934283   -0.079406   -2.725063
H     -4.410260   -0.637210   -1.164190
H     -1.259812    1.732872   -1.977826
H      3.302708   -0.497748   -3.018839
H     -4.158512   -3.742752    1.785287
H      1.544333    0.349948    1.652784
H      4.263856    1.161127    2.158406
H     -1.558437   -0.934482   -2.112859
