59

C     -5.266678    0.956408   -2.033277
C     -5.646037    2.717193   -0.256617
C     -2.944490   -0.303251    1.984767
C     -3.795964   -1.501805    0.099857
C     -3.444891    1.736664   -0.617386
C     -2.380625    0.885993   -1.196146
C      6.069264    0.465530   -0.846108
C      5.061807    0.476750    0.118459
C     -0.636921   -0.790904   -0.638465
C      4.613535    1.557749   -2.340525
C      0.433871   -3.377689    1.873844
C      3.213018    0.600901    2.210156
C     -4.698029    1.788723   -0.956482
C     -2.790380   -0.576756    0.693750
C     -1.713521    0.073255   -0.067468
C      5.847347    1.009928   -2.088364
C      3.820187    1.018004   -0.107597
C      0.080503   -1.553851    0.378170
C      3.623989    1.566562   -1.386687
C     -0.304933   -2.765027    0.857678
C      1.572271   -2.773572    2.415820
C      3.133919   -0.839927    2.414651
C      2.711572    1.050703    0.872824
C      1.961239   -1.552647    1.929240
C      1.232428   -0.945367    0.926721
O      6.866744    0.986499   -3.031399
O      2.368792    2.120607   -1.634573
O     -1.424814   -3.398677    0.339194
O      2.267975   -3.393972    3.403924
O      4.036008   -1.456229    2.985934
O      1.607484    0.275445    0.430149
H     -5.116210    1.486038   -3.001129
H     -6.389140    0.857092   -1.921835
H     -4.789152   -0.021955   -2.149819
H     -6.098845    3.432431   -0.987217
H     -6.463442    2.077251    0.150041
H     -5.110596    3.281991    0.516368
H     -2.241033    0.361923    2.460673
H     -3.750660   -0.728946    2.559868
H     -3.897552   -2.359228    0.831381
H     -4.787990   -1.003954    0.029380
H     -3.444015   -1.943668   -0.840139
H     -3.114954    2.409369    0.209006
H     -2.820441    0.220994   -1.946844
H     -1.634517    1.530914   -1.692582
H      7.039304    0.026705   -0.626678
H      5.286841    0.034492    1.066812
H      0.047763   -0.100284   -1.206358
H     -1.141723   -1.485782   -1.377730
H      4.434185    1.985472   -3.311356
H      0.125563   -4.323785    2.244497
H      2.567377    1.072375    3.020530
H      4.225114    0.960152    2.445451
H     -1.210672    0.851505    0.558988
H      2.339973    2.091740    0.972034
H      6.949188    0.185082   -3.672519
H      2.206702    2.516817   -2.537525
H     -1.747073   -4.295467    0.663495
H      3.061336   -3.176518    3.928415
