56

C      0.170164    4.949194   -1.633589
C      2.550817    5.412316   -0.849826
C      4.738751   -2.123640    0.224643
C      3.776906   -4.502008    0.303969
C     -4.645212   -2.720256    1.578688
C     -5.165240   -2.251765   -0.820539
C      1.166309    3.740976    0.203082
C     -0.104346    2.997673    0.318824
C      2.352642   -2.518390    0.561834
C      2.125037   -1.073368    0.631705
C     -3.825750   -0.633407    0.474999
C      1.288475    4.659605   -0.719724
C      3.573956   -3.009056    0.371633
C     -4.943123   -1.671881    0.551716
C     -0.002638    1.548599    0.091056
C     -2.545288   -1.266025    0.113135
C     -1.309405   -0.517607   -0.006109
C     -1.263182    0.781562    0.208512
C      1.079472    0.907339   -0.228504
C     -0.107268   -1.232480   -0.405185
C      1.190298   -0.541189   -0.453909
O     -2.519737   -2.512649   -0.102895
O     -2.418243    1.481868    0.558177
O      2.273342    1.638814   -0.382256
O     -0.173969   -2.479482   -0.720097
O      1.777644   -0.723304   -1.716654
H     -0.147134    4.010551   -2.164946
H      0.483208    5.649255   -2.434400
H     -0.713547    5.347938   -1.073883
H      2.375046    6.380138   -1.341008
H      3.311908    4.784714   -1.353807
H      2.959594    5.608001    0.183033
H      4.710545   -1.595385   -0.770206
H      4.845103   -1.378830    1.044262
H      5.678638   -2.712641    0.219810
H      4.839313   -4.736078    0.257353
H      3.269206   -4.889929   -0.603292
H      3.276572   -4.929081    1.212019
H     -4.023835   -2.347131    2.396611
H     -5.607949   -3.065467    2.024577
H     -4.159830   -3.635304    1.145968
H     -5.358020   -3.348756   -0.729600
H     -6.056009   -1.751899   -1.273359
H     -4.326002   -2.059176   -1.514718
H      1.994964    3.540541    0.881319
H     -0.874759    3.423307   -0.351958
H     -0.523480    3.137416    1.356948
H      1.516654   -3.194633    0.671163
H      3.064352   -0.491216    0.599171
H      1.631339   -0.773006    1.602140
H     -4.085459    0.138804   -0.267784
H     -3.770568   -0.159673    1.469764
H     -5.868573   -1.136821    0.887894
H     -2.469140    2.030783    1.395724
H      3.028363    1.489596    0.251401
H      1.959087   -1.677460   -1.872881
