59

C     -1.429312    2.930882    0.660981
C      1.217133    4.262669   -0.811239
C     -5.575751   -0.690476   -0.624345
C      5.720738    0.020933    0.981363
C     -3.185017   -2.771054    2.836296
C      3.462755   -3.360638   -1.351268
C     -0.102240   -2.571508   -1.795293
C     -1.501641    1.796191   -1.477928
C      1.285012    2.408083    0.731190
C     -2.920759    0.125171   -0.657238
C      2.892222    0.707176    0.677263
C     -0.773991    2.871085   -0.727134
C      0.660334    2.845473   -0.576998
C     -1.637790    0.542682   -0.693407
C      1.587912    0.955116    0.526060
C     -3.285282   -1.015139    0.075021
C      3.389101   -0.580269    0.474522
C     -0.702443   -0.205446    0.022075
C      0.744879   -0.101728    0.164242
C     -0.998837   -1.328776    0.764886
C     -2.305064   -1.733957    0.784675
C      2.520435   -1.619103    0.106807
C      1.175693   -1.388492   -0.058115
O      0.005988   -1.953741    1.442702
O     -4.607793   -1.427846    0.095962
O      4.715981   -0.869497    0.624352
O     -2.744895   -2.846478    1.482647
O      3.007731   -2.898031   -0.096292
O      0.223983   -2.303778   -0.443521
H     -1.008906    3.728920    1.281229
H     -2.517208    3.137286    0.565592
H     -1.334665    1.981974    1.201542
H      0.780320    4.725327   -1.697652
H      1.094335    4.888295    0.099048
H      2.323101    4.210343   -0.992019
H     -6.523107   -1.292166   -0.589763
H     -5.285644   -0.493747   -1.665719
H     -5.716798    0.311405   -0.134184
H      6.648626   -0.586692    1.192484
H      5.986657    0.692146    0.154186
H      5.492110    0.533959    1.931900
H     -2.338497   -2.604162    3.533569
H     -3.828320   -3.612363    3.093250
H     -3.802229   -1.830307    2.896620
H      3.375571   -4.462150   -1.433448
H      4.499826   -3.089902   -1.573721
H      2.822198   -2.908795   -2.164290
H     -0.084841   -3.673431   -2.001308
H      0.522374   -2.001037   -2.480943
H     -1.154814   -2.268801   -1.937339
H     -0.968616    1.617271   -2.415280
H     -2.519873    2.169125   -1.712027
H      0.594860    2.510075    1.593179
H      2.205101    2.937601    0.969422
H     -3.651021    0.700552   -1.211123
H      3.540616    1.529262    0.958653
H     -1.091459    3.835436   -1.211148
H      1.112122    2.254523   -1.430582
H     -0.010902   -2.739453    2.041607
