59

C      5.352714    1.680493    0.865848
C      4.246466    3.079129   -0.911327
C      3.422218   -0.459446   -1.308377
C      4.390740   -1.693601    0.514343
C      2.912779    1.577991    0.511341
C      2.593609    0.567946    1.520241
C     -3.825695    1.872114   -1.306905
C     -3.350052    0.784992   -0.542109
C      0.789496   -0.282754    0.065364
C     -5.056567    2.590569    0.580444
C     -0.853544   -2.848880   -2.214620
C     -3.717048   -1.846254    1.503035
C      4.100381    2.070421    0.210257
C      3.255447   -0.897662   -0.108890
C      2.006778   -0.750982    0.757595
C     -4.677283    2.773423   -0.752070
C     -3.698288    0.569135    0.764250
C     -0.123329   -1.230109   -0.549225
C     -4.577729    1.521771    1.306560
C      0.095614   -1.949335   -1.668572
C     -2.050056   -3.012115   -1.606304
C     -3.618027   -2.442081    0.173663
C     -3.141035   -0.454640    1.605434
C     -2.306855   -2.295333   -0.470872
C     -1.403226   -1.422751    0.069800
O     -5.179713    3.864140   -1.472385
O     -4.968736    1.353980    2.614433
O      1.243509   -1.890394   -2.396011
O     -3.040225   -3.882823   -2.079939
O     -4.565108   -3.030002   -0.373042
O     -1.726529   -0.719794    1.213232
H      5.979314    2.545341    1.191394
H      5.958179    1.132359    0.087247
H      5.245858    0.998318    1.713435
H      3.348021    3.093705   -1.521434
H      4.606278    4.052869   -0.541940
H      5.061816    2.701197   -1.607719
H      4.337833   -0.650847   -1.867020
H      2.705093    0.161098   -1.873771
H      4.191208   -1.910562    1.565512
H      4.369826   -2.689669   -0.022891
H      5.364478   -1.188176    0.345716
H      2.085810    1.988523   -0.059672
H      3.450087    0.201212    2.072744
H      1.779990    0.856872    2.184061
H     -3.508987    1.992085   -2.334668
H     -2.665733    0.167733   -1.105519
H      0.216344    0.345227    0.817090
H      1.089586    0.521557   -0.698367
H     -5.754546    3.317616    1.033670
H     -0.660669   -3.402720   -3.116009
H     -3.091223   -2.491360    2.172117
H     -4.724859   -1.880499    1.964730
H      1.929678   -1.495331    1.488345
H     -3.045968   -0.174626    2.631181
H     -4.756061    4.760990   -1.536194
H     -4.700166    0.599304    3.181774
H      1.493032   -2.372263   -3.219057
H     -2.834928   -4.377102   -2.925988
