39

C      2.529963    1.357555   -1.025709
C      2.050010    1.152905    1.323254
C     -0.513825   -0.994814    1.410445
C      1.593451   -2.021718   -0.515924
C     -1.757245    1.858241    0.080342
C     -0.295878    1.814587    0.163354
C      2.365630   -0.885817    0.018430
C      0.161120   -1.782603   -0.825982
C     -3.932117    0.933008   -0.307713
C     -2.791876   -1.522337   -0.019491
C     -2.479310    0.821469   -0.243509
C     -1.866425   -0.471159   -0.551105
C      0.336951    0.563937   -0.371904
C      1.777892    0.458314   -0.023394
C     -0.475122   -0.668863   -0.045692
O     -4.483876    2.023464   -0.051621
O     -3.500962   -1.351136    0.952343
H      3.549962    1.459608   -0.639484
H      2.575253    0.762864   -1.962042
H      1.972838    2.297389   -1.123176
H      3.079741    0.837756    1.635591
H      1.369357    0.788284    2.102530
H      2.069969    2.239737    1.223618
H     -1.286430   -1.791441    1.547217
H     -0.841455   -0.146771    2.032844
H      0.433054   -1.453707    1.787262
H      1.619334   -2.914108    0.183301
H      2.063242   -2.446645   -1.455400
H     -2.217046    2.833818    0.311412
H      0.062547    2.727041   -0.409700
H      0.020197    2.038048    1.207131
H      2.699210   -1.154924    1.067603
H      3.354380   -0.854302   -0.535260
H      0.084372   -1.481578   -1.912282
H     -0.419054   -2.729728   -0.760955
H     -4.527524    0.089050   -0.572155
H     -2.838251   -2.480339   -0.516150
H     -1.811482   -0.547132   -1.678286
H      0.269404    0.642049   -1.499746
