53

C     -6.189403    1.521896   -0.941760
C      4.499358   -0.414041   -1.864909
C     -6.089993    0.868669    0.418244
C     -4.795138    0.032597    0.398468
C     -3.684466    1.010629    0.140164
C     -2.367925    0.293161    0.120221
C     -2.374726   -0.736442   -0.969107
C     -1.019911   -1.422190   -1.011361
C     -0.767688   -2.092539    0.304371
C      0.549627   -2.814473    0.260865
C      1.667152   -1.852441   -0.014487
C      4.290961    2.108387    0.948753
C      4.999040    1.351223   -0.158695
C      1.778830   -0.754544    1.036249
C      3.189085    1.256340    1.568383
C      4.082410    0.910267   -1.250503
C      2.947296    0.108420    0.614409
N      2.739219    0.688383   -0.699011
H     -7.272515    1.698878   -1.126994
H     -5.736496    0.847734   -1.676565
H     -5.629381    2.480798   -0.897824
H      5.256639   -0.316768   -2.640384
H      4.823986   -1.147924   -1.106142
H      3.582656   -0.844689   -2.335276
H     -5.920675    1.647231    1.180352
H     -6.938797    0.229327    0.665449
H     -4.870341   -0.692376   -0.445799
H     -4.652757   -0.517547    1.327861
H     -3.683436    1.763906    0.953831
H     -3.835601    1.490278   -0.853157
H     -1.572674    1.043701    0.004752
H     -2.283760   -0.204628    1.131191
H     -2.596408   -0.327072   -1.954406
H     -3.112802   -1.555375   -0.741880
H     -1.048330   -2.120150   -1.848041
H     -0.222173   -0.676098   -1.231817
H     -0.735003   -1.389759    1.172236
H     -1.559529   -2.856684    0.530809
H      0.746834   -3.243071    1.277414
H      0.523784   -3.645212   -0.477769
H      1.605623   -1.357370   -0.999973
H      2.634834   -2.428667   -0.057524
H      5.059514    2.259679    1.751041
H      3.921994    3.056889    0.549000
H      5.624993    0.527918    0.249367
H      5.724954    2.076895   -0.605310
H      0.859641   -0.187121    1.166042
H      2.022815   -1.259273    1.992472
H      3.420662    0.941013    2.588380
H      2.259080    1.892347    1.606262
H      4.032582    1.647285   -2.075252
H      3.864219   -0.521852    0.629865
H      2.252142    1.624454   -0.642681
