52

C     -2.739569   -0.742733    3.047926
C     -2.589023    1.741466   -3.749454
C     -4.724340    2.661800    0.470154
C     -1.464502   -0.460565    0.528443
C     -1.404087    0.344337   -1.690237
C      1.477843    1.270852   -0.746478
C      3.734487    0.375774    0.592860
C      1.500317   -3.904193    1.240815
C      3.524873    3.962504    0.496403
C     -0.782640   -0.365388   -0.671136
C      1.640430   -0.068412   -0.439874
C      2.762302   -0.518064    0.226793
C      1.505917   -2.402648    1.032942
C      2.467714    2.162451   -0.370672
C      3.602100    1.714515    0.302238
C     -2.702140    0.106557    0.743513
C     -2.638204    0.916356   -1.493038
C      0.566426   -1.004436   -0.854601
C      0.545298   -2.297010   -0.130058
C      2.862877   -1.979049    0.522673
C     -3.298566    0.807931   -0.288201
C      1.033143   -3.445387   -0.967155
O      3.894434   -2.279713    1.375809
O      1.011887   -3.581675   -2.198365
O     -3.302065   -0.046604    1.983086
O     -3.239912    1.616036   -2.512819
O     -4.542418    1.365801   -0.039995
O      1.540932   -4.381567   -0.075764
O      2.617822    3.554267   -0.520781
O      4.399219    2.840424    0.537556
H     -2.398771   -1.737264    2.649724
H     -1.852848   -0.206457    3.413191
H     -3.483409   -0.980485    3.826228
H     -1.722496    2.417842   -3.739549
H     -2.260871    0.733315   -4.125587
H     -3.371238    2.063826   -4.492810
H     -5.757089    2.728826    0.872854
H     -4.662519    3.359807   -0.404232
H     -3.980373    2.931949    1.243662
H     -0.999116   -1.015855    1.355264
H     -0.893409    0.435072   -2.641742
H      0.624794    1.676892   -1.263747
H      4.619388    0.030920    1.117009
H      2.342034   -4.254476    1.864904
H      0.501000   -4.148721    1.702575
H      4.058471    4.886557    0.247597
H      3.028832    4.004383    1.486731
H      1.183090   -1.848133    1.918888
H      0.695618   -1.155169   -1.968345
H     -0.495900   -2.604934    0.180645
H      2.990856   -2.481193   -0.479553
H      4.573404   -2.800328    0.883710
