52

C      2.238866   -3.557757    1.379361
C      3.056612    3.432779   -0.341783
C      5.691148   -0.405489    0.486904
C      1.259429   -1.194771    0.273058
C      1.554087    1.071857   -0.272706
C     -1.369984    1.183358    1.180098
C     -3.948704    0.377585    0.756023
C     -2.035207   -0.040199   -3.332266
C     -3.676798    2.132394    3.898258
C      0.735203   -0.047656   -0.284401
C     -1.651301    0.433026    0.068660
C     -2.938531    0.027776   -0.147874
C     -2.299006   -1.081674   -2.294765
C     -2.369982    1.541111    2.093344
C     -3.662480    1.126825    1.864030
C      2.541815   -1.235020    0.820516
C      2.822734    1.062781    0.259836
C     -0.599065    0.067414   -0.875722
C     -0.914274   -1.196131   -1.641439
C     -3.343281   -0.772563   -1.297194
C      3.329777   -0.088019    0.811165
C     -0.074220   -1.168124   -2.868246
O     -3.809071   -2.007586   -0.785744
O      0.995052   -1.801536   -3.038233
O      3.049976   -2.400275    1.376573
O      3.559539    2.250816    0.217024
O      4.610909   -0.080537    1.344023
O     -0.704100   -0.322900   -3.750026
O     -2.400762    2.268705    3.273703
O     -4.508154    1.584328    2.885500
H      1.928669   -3.823458    0.349344
H      2.813270   -4.380462    1.852270
H      1.302383   -3.390522    1.950521
H      2.649640    3.273161   -1.363784
H      2.286859    3.924193    0.294359
H      3.932798    4.135237   -0.459885
H      6.611323    0.104402    0.860715
H      5.452943   -0.048815   -0.522770
H      5.820763   -1.521358    0.466172
H      0.663844   -2.086904    0.288619
H      1.169206    2.005263   -0.708872
H     -0.382168    1.544886    1.427556
H     -4.966977    0.057848    0.586045
H     -2.666050   -0.194081   -4.250496
H     -2.117630    0.981263   -2.964326
H     -4.077948    3.103329    4.229379
H     -3.582877    1.397593    4.720333
H     -2.510984   -2.064588   -2.763506
H     -0.567203    0.889523   -1.646658
H     -0.842292   -2.115230   -1.065873
H     -4.234294   -0.326455   -1.786098
H     -3.823500   -2.625344   -1.550722
