26

C      1.271177   -1.143335    0.310034
C     -3.456424   -0.918656   -0.886266
C     -0.719858    1.868083   -0.483130
C      2.545324   -1.628024    0.219382
C     -0.395680    0.546799    0.188045
C     -2.527714   -0.121173   -0.033391
C      3.558046   -0.781795   -0.133115
C      1.987747    0.948671   -0.279438
Br     2.938437   -3.472458    0.577341
N      4.759753   -1.207411   -0.225790
N      3.260294    0.519422   -0.382466
N      0.970874    0.162766    0.059979
O     -4.769734   -0.600826   -0.521402
O      1.717401    2.279958   -0.539960
O     -1.187766   -0.417880   -0.375732
S     -2.554669    1.657399   -0.512396
H      0.487580   -1.842850    0.592966
H     -3.350508   -0.636073   -1.952793
H     -3.243695   -1.984732   -0.736373
H     -0.470339    2.730481    0.141056
H     -0.416844    1.920749   -1.525148
H     -0.653007    0.646420    1.255759
H     -2.722409   -0.239302    1.031581
H      5.555368   -0.595973   -0.490564
H     -4.830380   -0.740700    0.461230
H      2.247027    3.050442   -0.197518
