54

C      5.619572   -1.298932   -0.584273
C      5.324616    1.105868    0.954745
C     -2.776869    2.267426    2.005336
C     -2.613893    2.992356   -0.379069
C     -5.631883   -0.086530   -0.096417
C     -4.840423   -0.368105    0.980413
C     -5.139233   -0.348913   -1.360050
C     -3.569694   -0.906135    0.801066
C     -3.878958   -0.882300   -1.535296
C      0.526112    2.260687    0.869241
C     -0.637932    2.850996    1.029053
C     -1.622200   -3.044993   -1.147100
C      4.279205   -0.640146   -0.508922
C      4.124957    0.223735    0.718216
C     -3.058418   -1.175406   -0.447792
C      0.543726    0.890256    0.378844
C     -1.736271   -1.730641   -0.667156
C     -0.354528   -3.558628   -1.282062
C     -0.562616   -1.076977   -0.378120
C      1.863035   -0.973621   -0.240577
C      3.160449   -1.682660   -0.442821
C      1.795017    0.320320    0.225807
C     -0.635549    0.227281    0.088713
C      0.678593   -1.657573   -0.538761
C     -1.919744    2.185116    0.733370
O     -0.289750   -4.756744   -1.720605
O      3.174886   -2.419264   -1.619091
O      2.962179    1.011094    0.526410
O      0.727074   -2.892911   -0.990578
O     -1.803534    0.895032    0.275398
H      5.966671   -1.598653    0.435091
H      5.601514   -2.176008   -1.254638
H      6.349057   -0.545780   -0.990689
H      5.114816    1.699704    1.866011
H      6.211581    0.485313    1.143962
H      5.422138    1.777042    0.084786
H     -2.497232    3.203822    2.515706
H     -3.844737    2.274077    1.677006
H     -2.518760    1.382310    2.600422
H     -2.470523    2.506952   -1.366347
H     -2.184857    4.006439   -0.455002
H     -3.711760    3.021786   -0.204751
H     -6.613206    0.330693    0.080456
H     -5.210298   -0.169184    1.972156
H     -5.777973   -0.120679   -2.205010
H     -2.978603   -1.117370    1.690122
H     -3.491715   -1.088003   -2.516601
H      1.458062    2.778939    1.096446
H     -0.647013    3.902048    1.405582
H     -2.538993   -3.554039   -1.374315
H      4.071572   -0.009774   -1.393091
H      3.946319   -0.470414    1.576569
H      3.332800   -2.391189    0.393521
H      3.303218   -1.857719   -2.425311
