48

C     -2.822322    0.054329   -1.043127
C      3.531424    1.046281   -2.229677
C     -3.904516   -0.153006   -0.031505
C     -1.801541   -1.055932   -0.914144
C      2.821776    1.143798   -0.909566
C      1.519371    0.980751    1.430747
C     -3.469214   -1.004370    1.138370
C      3.557409    0.447263    0.210319
C      2.997769    1.079721    1.492314
C     -2.054052   -0.736708    1.552496
C     -1.069918   -0.795359    0.410946
C      0.990767    0.252763    0.221303
N      3.670150   -0.297003   -2.714820
N     -5.034988   -0.765948   -0.732337
N     -2.365673   -2.365175   -0.975831
N      0.959829    2.319875    1.438781
O     -4.285817   -0.612389    2.225957
O      4.934651    0.597870    0.129241
O      3.481900    0.414650    2.611392
O     -1.685401   -1.715747    2.475117
O      1.551770    0.638477   -0.959758
O     -0.391541    0.395650    0.228326
H     -2.287878    0.998350   -0.769406
H     -3.184881    0.177732   -2.071234
H      2.938452    1.614404   -2.967409
H      4.533197    1.500317   -2.123974
H     -4.260148    0.832147    0.326128
H     -1.065077   -0.912889   -1.731202
H      2.787562    2.229331   -0.641820
H      1.139125    0.501219    2.375120
H     -3.699440   -2.067945    0.971417
H      3.260390   -0.608902    0.231734
H      3.319125    2.139420    1.537900
H     -2.052963    0.277667    2.044867
H     -0.327328   -1.604824    0.511174
H      1.222203   -0.823803    0.369809
H      3.705067   -0.319543   -3.777136
H      4.467797   -0.823698   -2.302425
H     -4.668751   -1.463383   -1.418916
H     -5.458212    0.009622   -1.304580
H     -2.444070   -2.673284   -1.971792
H     -1.711127   -3.041863   -0.513191
H      0.654655    2.558097    0.469080
H      0.077959    2.367613    2.032031
H     -4.492935   -1.364232    2.811729
H      5.220196    1.462347   -0.203581
H      3.601249    1.067302    3.336447
H     -2.405998   -1.900994    3.133870
