72

C      0.546123   -3.947402    1.813827
C     -7.944703    1.629383    0.408513
C     -3.395530    2.955579   -2.524395
C      0.534558   -3.501623    0.387039
C      8.010597    0.387411   -1.336549
C      7.033231   -0.581451   -1.355204
C      3.061938    2.227122   -0.753062
C     -4.070265   -0.782578    2.795368
C      1.674857    1.973289   -1.263110
C     -3.207462   -1.940087    2.343406
C      1.733075   -0.767106    0.504595
C     -0.640474    0.098933    0.585015
C     -5.471951    0.604123    1.222428
C      6.317025    2.010521   -1.036129
C     -3.198696    1.242252   -0.210033
C     -1.687634   -2.406043    0.527119
C     -0.251137   -2.250412    0.142465
C     -4.247134    0.104871    1.613353
C      0.319266   -1.037770    0.837384
C      7.651448    1.701206   -1.175137
C      3.959768    1.084606   -0.938699
C     -3.100899    0.420683    0.899136
C      5.325861    1.037288   -1.054021
C      5.695082   -0.279291   -1.216569
C      2.024688   -0.421547   -0.930865
C     -1.863758   -0.159593    1.399106
C     -5.513523    1.414740    0.114490
C     -4.406053    1.760872   -0.631908
C      3.487400   -0.204035   -1.030213
N      1.289213    0.643055   -1.483247
N      4.554193   -0.994911   -1.196350
N     -2.040458   -1.564852    1.627209
O      8.659505    2.653359   -1.160716
O     -6.740402    1.926402   -0.293213
O     -4.522711    2.592456   -1.750421
H      1.601010   -4.084328    2.164736
H      0.093551   -4.971309    1.883110
H     -0.007262   -3.227710    2.452637
H     -7.838752    1.827170    1.480007
H     -8.762214    2.209194   -0.064356
H     -8.185617    0.531760    0.315186
H     -3.066078    2.112126   -3.195671
H     -3.601526    3.843510   -3.154261
H     -2.496235    3.172379   -1.888606
H      1.564561   -3.376281   -0.047176
H      0.068313   -4.293567   -0.266543
H      9.066402    0.112228   -1.449491
H      7.309591   -1.619257   -1.482091
H      3.480621    3.095657   -1.302405
H      3.048095    2.559273    0.327021
H     -5.044317   -1.227085    3.115121
H     -3.594700   -0.208492    3.619335
H      1.518101    2.530862   -2.238989
H      0.978914    2.497993   -0.564736
H     -3.881722   -2.633479    1.767078
H     -2.931246   -2.503452    3.278381
H      2.101211    0.039780    1.173610
H      2.324842   -1.662984    0.752914
H     -0.800038    0.170028   -0.485925
H     -0.184476    1.061244    0.928076
H     -6.351167    0.340734    1.799538
H      6.030049    3.060097   -0.906943
H     -2.323464    1.487152   -0.759776
H     -2.399228   -2.158816   -0.311586
H     -1.951969   -3.451396    0.815265
H     -0.231193   -2.074583   -0.968857
H      0.268983   -1.253516    1.930247
H      1.780506   -1.341509   -1.539159
H     -1.679462    0.293388    2.420323
H      0.985021    0.442520   -2.439003
H      4.551176   -2.041629   -1.301414
H      8.984681    3.112849   -2.017378
