92

C      5.543290   -2.652121    2.707156
C     -0.909518    1.656223    2.105171
C      0.866309    7.696183   -1.124625
C      0.107763   -4.599308   -2.976631
C     -6.989998   -0.061149    0.885423
C     -6.092878   -3.389465    0.651293
C     -3.169769   -4.256191   -0.634724
C      4.191709    0.714038   -0.731942
C      3.960562    2.012984    1.230307
C     -1.398524    4.271022   -1.450060
C      3.676725    1.841534   -1.444024
C      3.444236    3.140953    0.486921
C     -0.670876    5.434367   -1.340119
C      4.457190   -3.613342   -0.608391
C     -4.127130    1.822741    0.887466
C      4.858923   -3.939764    0.804713
C     -2.957077    2.630362    1.289593
C      4.680111   -0.386808    1.417417
C     -1.877377    1.928560   -1.444771
C      0.533897    2.864929   -1.756442
C      2.085601   -3.546853   -1.386391
C      1.600693   -1.487699    0.446902
C      4.312929    0.832517    0.626076
C     -0.851627    3.006016   -1.647261
C      3.067731   -3.030595   -0.610942
C      3.315026    2.997717   -0.829236
C     -3.665076    0.395397    0.732832
C      2.885124   -1.973864    0.341800
C      4.197604   -1.704240    0.936294
C     -1.580556    1.223033   -0.127847
C      0.701715    5.265642   -1.435495
C      0.835819   -3.014250   -1.231625
C      1.257724    4.021970   -1.629957
C      0.527021   -1.976021   -0.319407
C     -2.401069    0.079649    0.224767
C     -4.584828   -0.543862    1.152823
C     -1.984004   -1.267793    0.111806
C     -4.195660   -1.845749    1.048864
C     -2.953327   -2.172631    0.550746
N      4.502697   -2.860943    1.742834
N     -1.668593    2.141600    0.987650
O      1.449854    6.439669   -1.321119
O     -0.172028   -3.584980   -2.075197
O     -5.833907   -0.208705    1.653312
O     -5.116679   -2.826916    1.472394
O     -2.765732   -3.574553    0.533740
O      2.728477    4.089360   -1.646339
O     -0.795294   -1.652595   -0.361759
H      5.170957   -1.916946    3.449198
H      6.488118   -2.290848    2.310670
H      5.652004   -3.624870    3.264238
H     -1.021748    2.341164    2.970036
H     -1.222803    0.653768    2.456407
H      0.148284    1.651889    1.832267
H      0.210456    7.599354   -0.209894
H      1.583248    8.494166   -0.938787
H      0.214358    8.013558   -1.957866
H      0.919150   -4.252317   -3.649350
H      0.365071   -5.524965   -2.438223
H     -0.792636   -4.743811   -3.608203
H     -7.343947    0.998511    1.027775
H     -7.799195   -0.689739    1.354942
H     -6.865472   -0.280715   -0.177033
H     -5.938225   -3.144857   -0.432871
H     -6.193750   -4.493106    0.764841
H     -7.106321   -2.979852    0.904224
H     -2.339556   -4.860938   -1.062453
H     -3.986229   -5.002776   -0.427043
H     -3.544338   -3.600496   -1.431836
H      4.460690   -0.080214   -1.491689
H      4.012626    2.387722    2.286305
H     -2.485338    4.445366   -1.370328
H      3.662656    1.584200   -2.534756
H      3.244660    4.029550    1.164022
H     -1.108761    6.397654   -1.193755
H      4.294579   -4.650355   -1.084984
H      5.153420   -3.087243   -1.229329
H     -4.830836    1.863260    1.772029
H     -4.736778    2.173372    0.056103
H      5.962451   -4.020325    0.840118
H      4.432469   -4.894070    1.129254
H     -3.077238    3.648252    0.808248
H     -2.954203    2.884674    2.388200
H      5.764716   -0.513832    1.629613
H      4.250262   -0.385387    2.473777
H     -2.879295    2.386721   -1.286951
H     -2.011402    1.156876   -2.183337
H      1.004896    1.873176   -2.066644
H      2.292747   -4.360912   -2.108363
H      1.381946   -0.655327    1.200329
H      5.025773   -1.848612    0.112841
H     -0.484671    0.983210   -0.205740
