50

C     -3.265272   -3.507867    0.269576
C     -4.332928    4.274431   -0.095274
C      6.316420    0.757102   -0.219489
C      5.987512    2.008608    0.237180
C      5.314173   -0.180268   -0.341050
C      4.710391    2.353374    0.572504
C      2.574249   -1.962482   -0.424796
C      1.137016   -2.300520   -0.591237
C     -0.644542    0.693275    0.501995
C     -1.042306   -1.392292   -1.056154
C     -4.277757    0.035835    0.414610
C     -3.218256   -2.036509   -0.088531
C      4.005890    0.138655   -0.008455
C      2.829169   -0.562348   -0.023928
C     -1.923350   -0.066205    0.811542
C     -1.873731   -1.453504    0.232220
C     -3.128539    0.697829    0.523969
C      3.708850    1.403353    0.446789
C      0.461316   -0.337661    0.465669
C      1.808768    0.285786    0.426373
C     -3.144079    2.162252    0.348700
N      2.369399    1.453159    0.699174
N      0.342406   -1.125560   -0.754393
O     -2.052084    2.768165    0.456225
O     -4.274725    2.878933    0.078848
O     -4.287471   -1.342050    0.575840
H     -2.998796   -4.137235   -0.606574
H     -2.542840   -3.757329    1.065493
H     -4.314322   -3.744774    0.548775
H     -4.626199    4.452530   -1.162277
H     -3.360132    4.775860    0.044359
H     -5.106376    4.765608    0.522832
H      7.321495    0.502239   -0.478139
H      6.797137    2.729347    0.323753
H      5.531764   -1.185106   -0.699503
H      4.432789    3.341500    0.936227
H      3.023202   -2.655325    0.345413
H      3.124006   -2.183264   -1.361386
H      0.968255   -3.024800   -1.417055
H      0.769786   -2.824870    0.336261
H     -0.660185    1.162708   -0.495030
H     -0.392732    1.385375    1.331198
H     -1.118762   -2.316916   -1.634273
H     -1.426432   -0.504121   -1.611347
H     -5.182828    0.627721    0.197246
H     -3.361857   -1.988858   -1.187384
H     -1.897092   -0.212100    1.933363
H     -1.272512   -2.143361    0.896370
H      0.348336   -0.994025    1.331660
H      1.843776    2.285704    1.057151
