62

C      2.152284    1.634640    2.281130
C      4.465850   -1.528727   -1.408570
C      2.848497    1.390334   -1.838164
C     -2.974515   -4.797320    0.441329
C     -0.765928    5.075373   -0.462216
C     -1.736925   -5.117312    0.959704
C      0.504106    4.926017    0.040744
C     -3.301857   -3.490949    0.099352
C     -1.615674    3.973378   -0.576761
C     -0.809695   -4.107911    1.138594
C      0.967495    3.677318    0.445149
C      2.006724   -1.956174    0.351882
C     -2.380788   -2.496182    0.278404
C     -1.123981    2.762147   -0.168971
C      3.152108   -0.977456    0.562708
C     -1.117157   -2.798601    0.803536
C      0.142033    2.579068    0.340374
C      0.979367   -1.596355    1.392036
C     -2.385455   -1.138553    0.048575
C     -1.728092    1.537471   -0.177129
C     -3.312347   -0.257643   -0.459748
C     -2.964822    1.087191   -0.567858
C     -1.128564   -0.683381    0.444834
C     -0.825738    0.650352    0.324482
C      2.618593    0.387288    0.230762
C     -4.672156   -0.415782   -0.940470
C     -4.119176    1.779408   -1.139868
C      1.529265    0.683787    1.252061
N      4.382594   -1.354366   -0.007108
N     -5.132478    0.749049   -1.325185
N     -0.394000   -1.697534    0.890645
N      0.351665    1.273313    0.659130
O     -5.484752   -1.525812   -1.042326
O     -3.817949    2.294418   -2.428872
O      2.171039    0.449997   -1.076960
O      1.204687   -0.429305    2.029455
H      1.433714    2.372521    2.666624
H      3.136729    2.017881    1.969604
H      2.427768    1.047371    3.235157
H      5.206128   -0.765488   -1.793240
H      3.553598   -1.401091   -1.985709
H      4.952750   -2.502832   -1.683938
H      2.431712    1.376203   -2.890963
H      2.673912    2.422242   -1.436597
H      3.944090    1.249144   -1.877434
H     -3.676706   -5.609434    0.314572
H     -1.104603    6.054645   -0.768958
H     -1.443972   -6.119977    1.238233
H      1.194577    5.753886    0.146788
H     -4.268047   -3.340624   -0.288188
H     -2.604081    4.145625   -0.969222
H      0.176183   -4.313648    1.543250
H      1.977886    3.569662    0.814166
H      1.519245   -1.800961   -0.642746
H      2.404996   -2.986216    0.461628
H      3.281143   -0.979283    1.701814
H      1.051977   -2.410427    2.172415
H      3.447282    1.149697    0.307352
H     -4.548478    2.581947   -0.550921
H      4.773884   -2.188226    0.477023
H     -6.434444   -1.551688   -0.689922
H     -3.191506    1.687881   -2.865471
