36

C     -1.932361   -0.087478   -1.189198
C     -1.690954   -0.769367    1.054903
C      3.171079    1.683916   -0.020931
C      1.791729    0.943179   -1.832301
C      1.532849   -1.554141    0.951642
C     -1.296125   -0.910271   -0.250424
C      2.672687    1.879941   -1.289852
C      1.906281   -0.373440    0.144316
C      2.768159    0.553671    0.660939
C     -2.895642    0.814634   -0.855658
C     -2.663813    0.136631    1.417760
C      0.593543   -2.477418    0.224943
C      1.410295   -0.169895   -1.129658
C     -3.277387    0.940968    0.457079
C     -0.290144   -1.821444   -0.759774
O      3.061426    3.012882   -2.004028
O      3.275940    0.362208    1.942826
O     -3.480674    1.597943   -1.855367
O     -3.070080    0.284284    2.747380
O     -0.083800   -3.308545    1.116678
O     -4.241626    1.830500    0.859808
O      0.530892   -1.100423   -1.677179
H     -1.656652   -0.155891   -2.253874
H     -1.219860   -1.386767    1.789301
H      3.853291    2.403640    0.406726
H      1.438686    1.153181   -2.825438
H      1.165480   -1.217746    1.934706
H      2.497476   -2.100528    1.176564
H      1.259620   -3.181650   -0.363081
H     -0.791002   -2.606419   -1.362658
H      3.895974    2.939702   -2.594222
H      3.913838    1.005243    2.382361
H     -4.192707    2.284173   -1.707923
H     -3.783317    0.950021    3.005692
H      0.559586   -3.999668    1.454543
H     -4.732689    2.444377    0.243398
