36

C      6.040171   -0.639206   -1.426292
C      1.775386    0.036521   -1.020767
C      3.134757   -0.183683   -1.226887
C      2.071838    0.136275    1.331421
C     -5.052507    0.074491   -0.503270
C     -3.081198   -0.740327   -1.539256
C     -0.743003    0.329625    1.755058
C      1.252370    0.194397    0.244922
C     -4.447490   -0.559514   -1.568562
C      3.427342   -0.083321    1.125178
C     -4.343166    0.528005    0.577440
C     -2.160610    0.793288    1.701430
C      3.975415   -0.244724   -0.135986
C     -0.182523    0.419996    0.377590
C     -2.307620   -0.297265   -0.460941
C     -2.964912    0.330676    0.577916
O     -5.213265   -1.010881   -2.660869
O      4.253300   -0.141536    2.225616
O     -4.899254    1.170617    1.673142
O     -2.674584    1.546743    2.563691
O      5.321872   -0.456907   -0.244735
O     -0.930010   -0.488557   -0.448696
H      5.593024   -0.117853   -2.310305
H      7.108575   -0.286057   -1.328686
H      6.114126   -1.724200   -1.634694
H      1.156894    0.076464   -1.904013
H      3.566302   -0.310219   -2.209320
H      1.736601    0.249705    2.355438
H     -6.126044    0.227981   -0.504036
H     -2.574455   -1.238321   -2.367214
H     -0.164420    0.896205    2.512142
H     -0.768275   -0.748216    2.049323
H     -0.377302    1.475386    0.021934
H     -5.557492   -1.972232   -2.556862
H      3.903926   -0.030097    3.168287
H     -5.863767    1.369371    1.790862
