184

C     -7.007939    8.472599    2.514519
C     -8.407583    3.213067   -1.375014
C      5.733071    0.232635   -5.125745
C     -1.941706   -6.974796   -1.879554
C      4.430806    0.664612   -5.063441
C      6.129815   -0.684929   -4.184088
C     -0.953699   -6.335380   -1.133815
C     -2.669673   -6.302280   -2.836033
C     -3.524307   -7.537844    1.877413
C     -4.100282   -7.921435    3.059991
C     -7.826164    0.028036    2.241393
C     -8.115989   -1.376607    2.622812
C      3.546675    0.217792   -4.116836
C      5.227558   -1.144672   -3.213374
C     -0.727532   -5.004219   -1.384197
C     -2.447245   -4.974277   -3.091354
C     -3.547685   -6.210371    1.531584
C     -4.685954   -7.007455    3.878874
C     -7.639390    0.346203    0.821242
C     -9.379497   -1.920980    1.993438
C      8.828733   -0.153814   -1.199498
C     10.427233    1.191258   -0.004304
C      7.580322    0.424226   -0.676416
C     11.685924    1.123023    0.805283
C      2.946506   -1.214026   -2.189175
C     -1.173648   -2.944268   -2.613901
C     -3.807147   -3.016285    1.116596
C     -4.966398   -3.476081    3.374297
C      5.794359    0.802770    0.730718
C     10.999654   -1.003033   -0.708976
C      6.458350   -1.403706    0.504077
C     10.707311    1.116793    2.984331
C     12.779262   -0.037932    2.558626
C     -4.559415    8.644444    0.912975
C     -1.175344    1.416771    0.151780
C     -3.357873    3.755388    0.974494
C     -6.525921    7.259744    1.704207
C     -7.033575    3.589890   -1.861863
C      3.935011   -0.718048   -3.147918
C     -1.464396   -4.330307   -2.351545
C     -4.295134   -3.858204    2.234730
C     -4.135207   -5.217777    2.330818
C     -4.703503   -5.660965    3.515330
C     -6.461908   -0.314258    0.098511
C      2.670262   -0.261393   -1.075950
C     -1.932237   -1.906241   -1.792829
C     -4.623500   -3.164388   -0.144981
C     -5.032586    7.363050    1.579287
C     -0.117867    0.744599   -0.740178
C     -3.528339    4.510784   -0.332257
C      4.766562    0.758190   -0.326391
C     11.728750   -0.626230   -1.934375
C      7.370053   -2.545318    0.570577
C     11.316884    2.333687    3.521469
C     12.605566   -0.906023    3.726509
C     -5.957082    2.621398   -1.315059
C     -6.581700    0.210591   -1.317963
C      1.605293   -0.864336   -0.173975
C     -3.408664   -2.007399   -2.013811
C     -6.062563   -2.796787    0.132118
C     -0.806563    0.344200   -2.029250
C     -4.263234    5.782057   -0.121464
C     -4.649041    3.022659   -1.961823
N     -9.514370   -3.300573    2.481816
N     -5.195006   -4.562453    4.114089
N      3.778431   -0.021703   -0.236736
N     -6.560125   -1.689207    0.182167
N     -1.391928   -0.669339   -2.139765
N     -4.212002   -2.505913   -1.285999
N     -4.399784    6.208440    1.047041
N      0.468501   -0.374511   -0.098751
N     -3.835044    3.751426   -1.451266
N     -6.351057    1.335619   -1.655140
N      9.941362   -0.127351   -0.319661
N      6.943209   -0.096129    0.444072
N     11.513162    0.412573    2.047904
O     -5.161570    9.781238    1.434951
O     -6.785200    6.157076    2.538217
O     -7.044371    3.379913   -3.248329
O      4.826682    1.567330   -1.479590
O     12.723055   -1.305083   -2.346626
O     11.348989    0.472861   -2.662376
O      8.578261   -2.531874    0.829885
O      6.847735   -3.845156    0.313994
O     10.700346    2.998110    4.430016
O     12.520460    2.847315    3.132539
O     13.655251   -1.161109    4.405592
O     11.429447   -1.459085    4.141826
O     -7.005016   -0.785365   -2.245146
O      1.963214   -1.983868    0.555568
O     -3.787142   -1.412273   -3.260427
O     -6.899645   -3.948919    0.357339
O     -0.655803    1.322602   -3.046451
O     -4.766117    6.454958   -1.205728
O     -4.473541    2.450753   -3.242590
S     -0.380112    2.594571    1.277853
S     -1.772192    4.121669    1.773480
H     -7.879444    8.168316    3.161925
H     -7.352467    9.297255    1.894952
H     -6.235223    8.815810    3.226489
H     -8.554919    3.345006   -0.282117
H     -9.201387    3.824600   -1.856908
H     -8.682922    2.159821   -1.609598
H      6.416478    0.598437   -5.877237
H     -2.166097   -8.024231   -1.728210
H      4.084053    1.389197   -5.795405
H      7.136896   -1.038178   -4.208866
H     -0.407752   -6.908577   -0.387234
H     -3.444440   -6.787732   -3.431427
H     -3.055676   -8.241976    1.220313
H     -4.075579   -8.991064    3.337391
H     -8.681703    0.664815    2.612795
H     -6.951937    0.359466    2.858642
H     -7.282025   -2.062158    2.537137
H     -8.348947   -1.345702    3.738895
H      2.544086    0.574602   -4.099276
H      5.596187   -1.876599   -2.523799
H      0.040991   -4.500517   -0.802987
H     -3.031597   -4.443759   -3.856526
H     -3.102911   -5.837203    0.618793
H     -5.141896   -7.287366    4.798231
H     -8.588414    0.137514    0.255341
H     -7.549853    1.469289    0.748041
H    -10.281386   -1.385870    2.353094
H     -9.371335   -1.891016    0.906386
H      8.605863   -1.206163   -1.551937
H      9.090288    0.390554   -2.163470
H      9.610846    1.730606    0.543222
H     10.575482    1.740856   -0.962654
H      6.842360    0.522685   -1.543336
H      7.776546    1.542520   -0.469514
H     12.041799    2.160827    1.007936
H     12.489711    0.586098    0.242942
H      2.013299   -1.429144   -2.770757
H      3.334852   -2.166036   -1.745020
H     -0.079107   -2.702589   -2.489592
H     -1.373435   -2.734974   -3.704937
H     -3.878237   -1.961677    1.461697
H     -2.730981   -3.209696    0.950679
H     -5.226521   -2.445256    3.579189
H      6.232844    1.816527    0.773404
H      5.376745    0.585831    1.730167
H     11.696003   -1.268847    0.121251
H     10.503487   -1.991753   -0.976047
H      5.700913   -1.561334   -0.304939
H      5.804943   -1.532813    1.461492
H      9.741961    1.391808    2.475087
H     10.405557    0.458584    3.825036
H     13.303192   -0.581276    1.729770
H     13.468828    0.814498    2.783214
H     -3.459636    8.759843    1.158144
H     -4.732587    8.670691   -0.172826
H     -1.724814    0.659519    0.701314
H     -1.804631    1.998211   -0.560206
H     -3.452090    2.675770    0.847603
H     -4.168167    4.115382    1.647942
H     -7.073392    7.248083    0.764346
H     -6.836986    4.626614   -1.590334
H     -5.499769    0.136049    0.444055
H      2.325619    0.704018   -1.506894
H     -1.639262   -2.116264   -0.741249
H     -4.611994   -4.312451   -0.292802
H     -4.657444    7.456666    2.650025
H      0.639076    1.534088   -0.900617
H     -2.450790    4.900515   -0.527843
H     -5.920460    2.811604   -0.237009
H    -10.439287   -3.468106    2.915869
H     -8.716499   -3.586547    3.081064
H     -5.694731   -4.574030    5.049169
H     -4.769971   10.596355    1.084733
H     -7.093842    5.430903    1.964851
H     -6.979811    2.397845   -3.361753
H      3.978881    1.996012   -1.864895
H     11.715092    0.595001   -3.606282
H      7.352929   -4.662810    0.629285
H     12.889540    3.702917    3.502871
H     11.341265   -2.005869    4.991552
H     -7.421803   -0.543368   -3.111046
H      1.314149   -2.430741    1.208753
H     -4.719509   -1.361453   -3.581116
H     -7.928183   -3.866022    0.256079
H     -0.955878    1.131698   -4.009045
H     -5.726418    6.790834   -1.180605
H     -3.561168    2.412080   -3.679268
