46

C     -5.499424    1.509283    1.861612
C     -5.738080    0.071429   -0.082402
C      6.774902   -1.087151    1.060887
C      6.365474   -1.532925   -0.177935
C      6.026195   -0.094402    1.656067
C      5.248143   -1.003847   -0.796732
C      4.908682    0.431342    1.031710
C     -3.497053    0.676608    0.753412
C      3.289212    0.565327   -0.869294
C     -4.872347    0.283046    1.158162
C      4.489534   -0.006741   -0.207574
C      2.035523   -0.191476   -0.507007
C     -2.628652   -0.334773    0.097429
C      0.840110    0.433565   -1.209382
C     -0.425185   -0.230994   -0.823566
C     -3.099620   -0.919210   -1.151932
N      1.790973   -0.048182    0.923230
N     -1.378453    0.405430   -0.263525
O      0.792747    1.765894   -0.814155
O     -0.550600   -1.584881   -1.090304
O     -3.871527   -1.930372   -1.162061
O     -2.718447   -0.386891   -2.390549
H     -4.813467    1.940862    2.599179
H     -5.725698    2.276354    1.093863
H     -6.441569    1.219799    2.338378
H     -6.657986    0.714760   -0.050474
H     -6.103730   -0.962414   -0.104780
H     -5.176847    0.378096   -0.964076
H      7.656693   -1.507487    1.544961
H      6.936871   -2.316618   -0.673759
H      6.352186    0.252372    2.629893
H      4.917058   -1.355403   -1.784691
H      4.332669    1.214595    1.520630
H     -3.572596    1.616680    0.109526
H     -2.952619    1.023421    1.685472
H      3.413255    0.467363   -1.977551
H      3.168086    1.649606   -0.681288
H     -4.902307   -0.586461    1.798322
H      2.160499   -1.258732   -0.743777
H     -2.299948   -1.094483    0.837329
H      0.954249    0.356768   -2.324761
H      2.542451   -0.590501    1.421822
H      1.974035    0.966411    1.150302
H     -0.021010    1.937659   -0.280842
H     -1.106209   -2.195935   -0.474736
H     -2.916171   -0.936791   -3.227971
