46

C     -2.322605    1.537317   -0.282484
C     -4.518576    1.097346   -1.229741
C      4.955579    0.842232   -2.365367
C      3.660496    0.490170   -2.683648
C      5.332203    0.731458   -1.037545
C      2.746791    0.042526   -1.753507
C      4.423650    0.284304   -0.100845
C     -3.186301   -0.815727   -0.561733
C      2.144993   -0.549716    0.582621
C     -3.086538    0.562922   -1.118374
C      3.129635   -0.067333   -0.419661
C      1.378284    0.646001    1.162525
C     -1.882226   -1.520686   -0.342876
C      0.372828    0.207031    2.179576
C     -0.758156   -0.571178    1.605680
C     -2.169304   -2.863788    0.203156
N      2.404944    1.392668    1.910311
N     -0.887285   -0.809156    0.365515
O     -0.151511    1.345002    2.793778
O     -1.706585   -1.049139    2.492008
O     -1.515427   -3.301367    1.162240
O     -3.165445   -3.626269   -0.357693
H     -2.637846    1.446498    0.767800
H     -2.542736    2.605156   -0.582801
H     -1.243803    1.391922   -0.460683
H     -4.532261    1.883651   -2.008847
H     -5.224948    0.304259   -1.539375
H     -4.843660    1.574527   -0.283780
H      5.672460    1.193871   -3.097611
H      3.362729    0.574989   -3.717416
H      6.354058    1.005045   -0.762086
H      1.741193   -0.230356   -2.003442
H      4.744313    0.205165    0.941798
H     -3.871451   -0.808451    0.291200
H     -3.733313   -1.420642   -1.352394
H      2.634168   -1.091598    1.404193
H      1.430784   -1.208261    0.070149
H     -2.717901    0.505547   -2.165921
H      0.994001    1.306766    0.386676
H     -1.473782   -1.735037   -1.392980
H      0.892161   -0.448099    2.909125
H      2.964571    0.713454    2.469770
H      3.033288    1.916357    1.284135
H     -0.224874    2.042091    2.085198
H     -2.678752   -1.120112    2.310720
H     -3.297846   -4.611366   -0.087293
