45

C      4.536684   -0.463630    0.287500
C     -1.998639   -2.581406   -1.168154
C     -2.823651   -0.643201   -0.229605
C      3.826425    0.621909   -0.462677
C     -1.180780    3.048133   -2.222250
C     -1.373587    3.137810   -0.865960
C     -0.521676    1.947469   -2.722871
C     -1.134998   -1.375588    2.586850
C     -0.749229    0.036014    2.754187
C     -0.933912    2.170177    0.021265
C     -0.075670    0.966904   -1.828631
C     -1.020892   -1.949379    1.411273
C      0.351409    0.391998    1.836548
C     -0.283119    1.082920   -0.469716
C     -0.525596   -1.287202    0.205973
C      1.620360   -0.232590   -0.076876
C      0.223498   -0.010974    0.408047
N     -1.604452   -1.212387   -0.762154
O      1.943650   -1.341484   -0.522193
O      2.505796    0.819388   -0.008235
Cl     0.689103    0.000000    0.000000
H      5.628375   -0.374168    0.071381
H      4.244699   -1.474953   -0.082067
H      4.354584   -0.328774    1.356807
H     -1.122283   -3.199175   -1.425827
H     -2.632565   -3.037124   -0.377053
H     -2.620107   -2.430324   -2.079359
H     -3.246286   -0.004095   -1.064215
H     -2.705198    0.008368    0.629694
H     -3.628217   -1.421703   -0.062258
H      4.400328    1.567049   -0.328382
H      3.747071    0.361343   -1.557895
H     -1.522424    3.802244   -2.926709
H     -1.887317    3.989339   -0.450030
H     -0.356155    1.849566   -3.784636
H     -1.512381   -1.925975    3.449394
H     -0.342513    0.140173    3.799414
H     -1.676948    0.633634    2.683603
H     -1.118005    2.303691    1.091525
H      0.434138    0.130697   -2.298635
H     -1.319840   -2.989378    1.340185
H      1.269445   -0.133381    2.245006
H      0.644720    1.463514    1.865769
H      0.185261   -2.055448   -0.268030
H     -0.689103    0.000000    0.000000
