44

C     -5.310818    0.361324   -1.410445
C      6.772834    0.916687   -0.029384
C      2.322872   -0.063574   -1.154123
C      3.806742   -0.309246   -1.388115
C     -1.898962    1.182623    1.300520
C      3.483497    0.683390    0.709813
C     -5.389318    1.155209   -0.119662
C      5.802795   -0.185667    0.180040
C      2.204637   -0.172558    0.353620
C     -2.977288    0.758505    0.338858
C     -0.792810    0.178043    0.898403
C     -4.374907    0.635834    0.890993
C     -1.432487   -0.906056    0.476545
C     -4.247191   -0.858037    0.675985
C     -0.842249   -2.144527   -0.006344
N      6.242713   -1.307170    0.639903
N      4.449835    0.052360   -0.135534
N     -2.859740   -0.701411    0.549930
O     -6.682525    1.144958    0.379553
O     -5.072746   -1.806443    0.635569
O      0.366763   -2.339735   -0.070240
O     -1.650941   -3.214980   -0.437576
S      0.866976    0.639216    1.098114
H     -5.275746    1.006544   -2.304603
H     -4.391950   -0.295583   -1.419143
H     -6.180017   -0.321992   -1.534877
H      6.509555    1.439457   -0.960814
H      6.642069    1.658320    0.805211
H      7.817805    0.569018   -0.083465
H      1.772887   -0.813413   -1.721324
H      2.074401    0.974029   -1.433683
H      3.977133   -1.385711   -1.584916
H      4.199806    0.343479   -2.201231
H     -1.550208    2.200217    1.146961
H     -2.196821    0.922763    2.322803
H      3.227946    1.707886    0.389195
H      3.688305    0.588622    1.785819
H     -5.164030    2.218084   -0.403421
H      2.490043   -1.184956    0.736383
H     -2.879833    1.076024   -0.696786
H     -4.544116    0.941006    1.921055
H      5.594386   -2.091871    0.796219
H     -7.320797    0.922652   -0.347896
H     -1.278501   -4.173323   -0.334640
