48

C     -3.964480   -2.660518    1.806232
C     -3.207729    3.360297   -1.308901
C     -4.105037   -2.402282    0.466085
C     -2.874200   -2.114414    2.475561
C     -2.740807    2.497968   -2.276558
C     -2.991674    3.030164    0.023465
C      4.693892    0.633965   -0.434464
C      4.645983    0.301125    1.034714
C     -3.172791   -1.615034   -0.183832
C     -1.951725   -1.333538    1.825360
C     -2.074900    1.332864   -1.981916
C     -2.322378    1.858803    0.306228
C      3.362433    0.304569   -1.073861
C      3.958487   -1.003055    1.304772
C      0.629735   -1.026830   -1.388878
C     -2.100766   -1.078238    0.474404
C     -1.862382    1.008375   -0.671289
C      2.351357    0.125218    0.022256
C      0.958058    0.167892   -0.527518
C     -1.144074   -0.247410   -0.280354
N      2.640002   -1.084915    0.750079
O     -0.762139   -0.976095   -1.396081
O     -0.020834    0.083856    0.445286
Cl     0.686992    0.000000    0.000000
H     -4.646027   -3.265768    2.395408
H     -3.729762    4.270803   -1.595631
H     -4.962023   -2.838479   -0.034567
H     -2.756682   -2.313216    3.531183
H     -2.897163    2.733738   -3.333965
H     -3.338361    3.673750    0.823282
H      4.920300    1.715258   -0.591557
H      5.502419    0.084256   -0.964923
H      4.272322    1.146676    1.645852
H      5.719129    0.163248    1.356432
H     -3.312780   -1.426863   -1.254460
H     -1.089384   -0.885557    2.294356
H     -1.715132    0.666923   -2.763841
H     -2.181002    1.649448    1.379173
H      3.011176    1.141037   -1.733984
H      3.445651   -0.595401   -1.727114
H      3.953049   -1.132650    2.424113
H      4.633900   -1.818760    0.915286
H      0.907745   -1.991135   -0.903748
H      1.058937   -0.943738   -2.407716
H      2.457516    0.975229    0.727158
H      0.833336    1.077344   -1.124334
H      1.968806   -1.248914    1.532805
H     -0.686992    0.000000    0.000000
