46

C     -6.180798    0.312624   -3.274981
C     -5.689945   -0.695400    2.202902
C     -2.346832   -0.301060   -1.476700
C      4.428981    0.346801   -0.700337
C      5.655399    0.023163    1.282555
C      5.593787    0.161044   -1.440196
C      6.830830   -0.166725    0.586785
C     -3.596620   -0.099038   -2.061999
C     -0.890578   -0.753150    0.485533
C     -0.438358    0.595951    0.944127
C     -3.393077   -0.594028    0.625406
C      1.947429    0.390034    0.656545
C     -2.251790   -0.548635   -0.129974
C      4.435412    0.281626    0.680272
C      6.784625   -0.094155   -0.790967
C      3.201719    0.479390    1.476929
C     -4.751786   -0.141140   -1.319241
C     -4.643882   -0.389654    0.028139
N      0.843442    0.643678    1.562575
O      7.937518   -0.278954   -1.533591
O      3.139454   -0.477747    2.467697
O     -5.949921    0.061004   -1.928827
O     -5.773157   -0.441717    0.813117
H     -5.525982    1.087755   -3.719587
H     -5.933418   -0.633255   -3.840402
H     -7.212946    0.546643   -3.531799
H     -5.521479   -1.784443    2.335159
H     -6.689513   -0.445841    2.670679
H     -4.952608   -0.072634    2.717438
H     -1.438488   -0.266869   -2.069366
H      3.493696    0.547231   -1.201828
H      5.688213   -0.032367    2.362544
H      5.569577    0.216670   -2.516002
H      7.779509   -0.368630    1.045342
H     -3.623210    0.092583   -3.121436
H     -0.204389   -1.219209   -0.249233
H     -1.017473   -1.403034    1.372312
H     -1.179711    0.950832    1.698762
H     -0.449050    1.318907    0.103648
H     -3.334939   -0.788827    1.693338
H      1.855907   -0.593535    0.173712
H      1.884683    1.174211   -0.123838
H      3.217972    1.488475    1.943395
H      0.995053    1.433687    2.193583
H      8.841327   -0.467011   -1.167831
H      2.865417   -1.363013    2.075640
