34

C     -1.365927    0.194124   -1.125902
C     -3.402378    1.248641    0.714318
C      3.714363    0.025940   -0.697832
C      3.327351    0.477963    0.545439
C      2.772049   -0.673091   -1.420152
C      2.059983    0.237389    1.031465
C      1.521511   -0.912180   -0.943809
C     -1.211298    0.336446    0.356501
C      1.118732   -0.469409    0.292143
C     -0.226188   -0.714925    0.831736
N     -2.471535    0.222865    1.061609
O     -0.684789   -1.998602    0.633085
O     -1.269460    0.667776    0.032467
O      1.436358    0.039850   -0.059151
O     -0.259496   -1.353952    1.290572
O     -0.360834   -1.419268   -1.165620
S     -0.125881   -0.530496    0.027090
H     -1.492551   -0.865442   -1.382927
H     -0.436281    0.566569   -1.613159
H     -2.204169    0.793200   -1.535581
H     -2.858481    2.192472    0.548911
H     -3.963554    0.967887   -0.212542
H     -4.108848    1.356717    1.581695
H      4.700139    0.197666   -1.108118
H      4.044382    1.032736    1.142105
H      3.019785   -1.060487   -2.418048
H      1.796480    0.610312    2.015077
H      0.821541   -1.467843   -1.553003
H     -0.815370    1.351972    0.556651
H     -0.166632   -0.569861    1.945930
H     -2.871052   -0.740547    1.025893
H     -0.617262   -2.340511   -0.271487
H     -0.926016    1.571704   -0.109541
H      1.505329    1.024386   -0.015817
