35

C     -1.262687   -1.860516   -1.486359
C      0.830498   -0.997744   -0.682829
C      3.135584   -0.490018   -0.368685
C      1.583419    0.299672    1.243371
C     -1.590638    1.235399    0.346681
C     -2.495412   -0.963094    0.580761
C     -0.599749   -0.623921   -0.846812
C      3.969650    0.719874   -0.175820
C      2.921793    0.572450    1.858118
C     -2.969730    1.691830    0.410982
C     -3.765280   -0.422534    0.047166
N      3.837520    1.264694    1.023593
N     -4.021365    0.959187    0.278919
N      1.735247   -0.042603   -0.162806
N     -1.326581   -0.161805    0.282094
O      4.796167    1.232180   -1.136108
O      3.172970    0.209805    2.997883
O     -3.204673    3.042727    0.642804
O     -4.593605   -1.129301   -0.580136
H     -2.284362   -1.698336   -1.764281
H     -0.691832   -1.994316   -2.466715
H     -0.999661   -2.753678   -0.915686
H      1.220422   -1.333189   -1.695194
H      0.881856   -1.978186   -0.076192
H      3.233107   -0.836266   -1.389171
H      3.439650   -1.221894    0.370036
H      1.118350    1.328978    1.225142
H      0.972537   -0.371926    1.821185
H     -1.112696    1.651032    1.289889
H     -1.033185    1.737325   -0.470629
H     -2.616143   -0.972987    1.691124
H     -2.375190   -1.998372    0.264305
H     -0.647399    0.171324   -1.655328
H      4.842203    2.257360   -1.230615
H     -4.100787    3.476848    0.729314
