46

C     -2.887784    1.565355    2.050178
C     -2.651806   -0.579588    2.985614
C     -4.333126    0.309849   -3.145107
C     -4.169757    1.344464   -2.250255
C     -3.822438   -0.909818   -2.789335
C      6.092793    1.187426    0.313583
C      5.117978    1.714316    1.131379
C      3.059412   -2.169098   -1.192969
C      5.816454    0.086710   -0.469018
C     -3.519444    1.152608   -1.051233
C     -3.177985   -1.098050   -1.600206
C      4.304370   -1.606038   -1.236094
C      3.877109    1.112706    1.140025
C      2.083546   -1.631708   -0.365665
C     -0.823085   -0.030699    0.393854
C      0.053666   -0.224441    1.564386
C      4.550011   -0.508624   -0.444990
C     -2.993550   -0.066245   -0.664170
C      3.578428    0.010401    0.365219
C     -2.289611   -0.315359    0.610773
C      2.277827   -0.536118    0.443349
N     -2.868673    0.171130    1.784784
O      1.377419    0.042444    1.276735
H     -2.082284    2.156287    1.523860
H     -3.869259    2.068192    1.911119
H     -2.655193    1.795583    3.143683
H     -2.237465   -1.572681    2.716761
H     -3.654116   -0.809502    3.462971
H     -2.098523   -0.057396    3.782958
H     -4.838147    0.427464   -4.094346
H     -4.568294    2.307686   -2.521783
H     -3.914632   -1.765305   -3.443648
H      7.077451    1.629734    0.278462
H      5.341902    2.593105    1.755110
H      2.875670   -3.028494   -1.816402
H      6.565607   -0.338940   -1.114562
H     -3.427649    2.005563   -0.406752
H     -2.778726   -2.077408   -1.336683
H      5.077672   -2.003730   -1.868745
H      3.112022    1.527797    1.782744
H      1.138430   -2.150110   -0.377360
H     -0.455770   -0.562410   -0.486655
H     -0.720737    1.068160    0.104901
H      0.020433   -1.256281    1.990281
H     -0.242096    0.485895    2.396272
H     -2.318051   -1.464830    0.713750
