29

C     -1.712098   -1.291093    1.259777
C     -1.693319    1.520488    0.241399
C      3.058521    1.179711    0.391733
C      2.233604    1.665000   -0.602506
C      2.789456   -0.026618    0.974668
C      1.143578    0.901271   -0.982275
C      1.699914   -0.766044    0.579203
C     -1.597670   -0.872747   -0.183243
C      0.854732   -0.313571   -0.409789
C     -0.296841   -1.082633   -0.834819
N     -2.206737    0.392050   -0.455125
O     -0.502111   -0.990839   -2.236714
Cl     0.690663    0.000000    0.000000
H     -1.201558   -0.636761    1.963307
H     -1.326368   -2.333564    1.353737
H     -2.809141   -1.362347    1.482738
H     -0.896259    1.322344    0.969640
H     -2.572060    1.976350    0.802758
H     -1.313665    2.268754   -0.488155
H      3.917478    1.746186    0.714247
H      2.439936    2.623315   -1.071090
H      3.442507   -0.406945    1.759242
H      0.529634    1.346198   -1.778257
H      1.548697   -1.717706    1.088203
H     -2.306168   -1.621618   -0.711070
H      0.008045   -2.180783   -0.711439
H     -3.255187    0.294011   -0.378698
H      0.023081   -1.632410   -2.737473
H     -0.690663    0.000000    0.000000
