35

C      0.510055    1.386902    1.454229
C     -0.823924   -0.308946    0.088242
C     -2.437755   -0.358005   -1.571080
C     -2.243793    1.601313   -0.395100
C      2.774243    0.003794    0.684567
C      1.590617   -1.261800   -0.884652
C      0.447928    0.101285    0.723092
C     -3.443696   -0.853655   -0.621520
C     -3.234626    1.134892    0.590196
C      3.926276    0.204421   -0.229113
C      2.966524   -1.552334   -1.339547
N     -3.833655   -0.143420    0.415682
N      4.014724   -0.572610   -1.231839
N     -1.412351    0.499942   -0.908118
N      1.591099    0.004936   -0.180896
O     -4.036861   -2.106300   -0.767847
O     -3.553085    1.838903    1.566426
O      4.832200    1.213209    0.056522
O      3.186741   -2.713257   -1.835966
H     -0.451221    1.863944    1.718097
H      1.106648    2.183857    0.910917
H      1.110311    1.281654    2.432392
H     -1.617778   -0.423650    0.902942
H     -0.694043   -1.381821   -0.249603
H     -1.932963   -1.226471   -2.028667
H     -2.896414    0.224036   -2.427599
H     -2.876757    1.892424   -1.306754
H     -1.690285    2.487102   -0.095318
H      2.729754    0.805552    1.455520
H      2.876090   -1.017641    1.125676
H      1.225039   -2.036229   -0.165003
H      0.941163   -1.212934   -1.795583
H      0.680407   -0.708687    1.498345
H     -4.876578   -2.349557   -0.237895
H      5.545965    1.499151   -0.642252
