34

C     -0.653964   -1.925942   -1.322841
C     -4.471529   -0.003156   -0.348161
C      4.034508    1.247027    1.155440
C      4.220788   -0.399697   -0.685580
C     -0.138740    0.616281    1.350619
C      1.225618    0.804439    1.265695
C      1.371920   -0.766462   -0.486113
C     -2.223602   -0.463850    0.595405
C     -0.012648   -0.949424   -0.391798
C     -2.984863    0.250216   -0.501855
C     -0.781428   -0.270875    0.515154
C      2.005831    0.116395    0.345686
N     -2.791653    1.687038   -0.432893
N      3.406781    0.312156    0.263161
H     -1.555577   -2.391221   -0.897039
H      0.065882   -2.783456   -1.464160
H     -0.830128   -1.436754   -2.298343
H     -4.961832    0.054211   -1.336100
H     -4.948298    0.690395    0.360639
H     -4.620488   -1.038058    0.017081
H      3.480649    2.211926    1.187843
H      4.100213    0.818263    2.168047
H      5.066280    1.477287    0.799536
H      5.091916    0.255040   -0.993748
H      4.591535   -1.309985   -0.166687
H      3.705270   -0.628708   -1.634221
H     -0.674527    1.195365    2.100642
H      1.723864    1.498010    1.920891
H      1.873753   -1.354853   -1.236130
H     -2.563892   -0.028197    1.584132
H     -2.518067   -1.530146    0.643392
H     -2.634627   -0.093562   -1.485181
H     -3.460965    2.136091   -1.115001
H     -3.137982    2.004206    0.522486
