32

C      2.432215    0.428709    2.066908
C      3.623659   -0.553333   -0.591657
C     -3.269019   -0.620191   -0.024189
C     -2.711580    0.598935    0.678230
C     -2.266076   -1.180065   -1.004411
C     -1.722572    1.277692   -0.246110
C     -0.874256   -1.028118   -0.421555
C      0.400651    0.741775    0.786099
C      1.711171   -0.010397    0.815254
C     -0.457050    0.422418   -0.405908
N      2.429979    0.140376   -0.374566
H      3.348202   -0.121681    2.271136
H      2.543258    1.517229    2.018300
H      1.732714    0.199991    2.920417
H      4.459743   -0.031631   -0.066524
H      3.875385   -0.515068   -1.677252
H      3.643916   -1.614113   -0.281137
H     -4.193006   -0.368869   -0.546048
H     -3.533113   -1.359216    0.761895
H     -3.510844    1.337875    0.891185
H     -2.244721    0.307762    1.632927
H     -2.289679   -0.662457   -1.965357
H     -2.428057   -2.277853   -1.158151
H     -1.455955    2.263463    0.215663
H     -2.216636    1.436909   -1.228575
H     -0.187248   -1.551212   -1.136968
H     -0.808646   -1.492203    0.569575
H      0.573052    1.847078    0.852241
H     -0.219315    0.512147    1.696811
H      1.479707   -1.101556    0.954723
H      0.062287    0.675896   -1.346192
H      2.071831    0.779707   -1.084906
