35

C      4.389732   -1.294398    0.611715
C      5.559202   -0.528609    0.588570
C     -1.031564   -0.373266   -1.274193
C     -1.262093    0.032617    1.057429
C     -3.124320    0.624585   -0.484493
C      3.117302    0.642871    0.162153
C     -1.770014    0.082991   -0.205600
C      3.160370   -0.710097    0.397976
C      4.262930    1.425227    0.133964
C      0.237051   -0.887938   -1.068691
C     -0.002048   -0.476223    1.279414
C     -4.096089   -0.557147   -0.389825
C      5.490989    0.834819    0.348631
C      0.741506   -0.934392    0.212858
C     -5.461609    0.003010   -0.673683
I      4.159292    3.495145   -0.230336
I      1.427019   -1.604139   -2.646356
I      0.722052   -0.524588    3.257917
N     -4.028329   -1.139153    0.917720
O      6.658327    1.601696    0.325102
O     -6.401317   -0.048095    0.149899
O     -5.701674    0.605801   -1.900561
O      1.993883   -1.442482    0.415672
H      4.428994   -2.364100    0.798638
H      6.489031   -1.040863    0.762283
H     -1.416301   -0.339824   -2.266672
H     -1.858209    0.397455    1.893668
H     -3.362553    1.373754    0.296391
H     -3.157010    1.089157   -1.472285
H      2.187055    1.131455   -0.007549
H     -3.833588   -1.263613   -1.208406
H     -3.478762   -2.037416    0.891219
H     -4.959211   -1.383922    1.317636
H      6.587783    2.588293    0.149527
H     -6.667828    0.844816   -2.139731
