44

C     -3.027808   -2.600976    0.564436
C     -2.131445   -1.475734    0.943220
C      5.237272    0.172000    0.495089
C      5.005305   -1.120236    0.063455
C     -3.238643    1.082152   -0.272492
C      4.130777    0.994890    0.683254
C      3.716511   -1.580142   -0.173609
C      1.060097    2.440247    0.909279
C     -2.751027   -0.168886   -0.988042
C     -2.238104    2.155763   -0.624531
C      0.068180    2.697448   -0.237446
C     -0.809393   -1.639669   -1.164027
C      2.863919    0.519481    0.442830
C      1.640884    1.112628    0.552203
C      2.630621   -0.774686    0.010375
C      0.480682   -2.064988   -0.579965
C      0.730314    0.140959    0.180851
C     -0.720280    0.435655    0.217083
C     -1.553362   -0.712309   -0.235475
N     -0.936430    1.703022   -0.303498
N      1.321459   -0.985633   -0.145147
O      0.917187   -3.205286   -0.423703
H     -3.197449   -3.192724    1.513565
H     -4.059064   -2.226223    0.311810
H     -2.634538   -3.315560   -0.153426
H     -2.681301   -0.793819    1.616791
H     -1.254368   -1.837721    1.532728
H      6.242394    0.514688    0.674792
H      5.871335   -1.757039   -0.081431
H     -3.211442    0.990046    0.832097
H     -4.267041    1.353682   -0.605839
H      4.315211    2.002093    1.019746
H      3.567214   -2.589032   -0.508442
H      1.821828    3.241950    0.907715
H      0.465656    2.402919    1.827578
H     -2.363268    0.158596   -1.982418
H     -3.542260   -0.903232   -1.148362
H     -2.475851    3.040286    0.008216
H     -2.384091    2.425799   -1.694476
H      0.696810    2.617816   -1.166934
H     -0.382498    3.687702   -0.173761
H     -1.420713   -2.454300   -1.534422
H     -0.570099   -1.011718   -2.074269
H     -0.933181    0.520087    1.344497
