26

C     -0.269833    0.997592   -0.437873
C     -0.828193   -0.227357    0.216453
C      1.069874    1.303162    0.187243
C     -2.174797   -0.515528   -0.427589
C     -2.808638   -1.715536    0.156416
C      3.286601    0.190327    0.462498
N     -3.001612    0.657447   -0.314007
N      3.896221    1.297443    0.598632
N      3.916121   -1.022200    0.803210
N      1.938778    0.168909   -0.044555
O     -2.217820   -2.806610    0.135473
O     -4.068403   -1.598739    0.724582
H     -0.166488    0.877994   -1.542448
H     -0.994240    1.837923   -0.232527
H     -1.055221    0.025468    1.282307
H     -0.176757   -1.100372    0.236778
H      0.977001    1.503962    1.262993
H      1.549968    2.189476   -0.302359
H     -1.955611   -0.729785   -1.503536
H     -2.823476    1.139789    0.606578
H     -2.840603    1.348207   -1.080572
H      3.513415    2.230173    0.374840
H      3.381430   -1.906710    0.997760
H      4.943139   -1.086370    0.875069
H      1.621757   -0.665553   -0.570608
H     -4.712612   -2.393111    0.702101
