62

C      6.753465   -3.070105    0.210643
C      6.384467    1.616731   -2.921856
C     -5.774610   -2.624328    1.635175
C     -5.363376    0.971662   -3.652488
C      6.071021   -3.454803    1.480662
C      6.902821    1.289101   -1.535750
C     -0.083164   -0.496323    0.332848
C      0.976591   -1.026466    1.074484
C     -1.057506    1.166411   -1.252716
C     -4.768698    1.400861   -0.371207
C     -1.746546    2.199161   -0.335497
C     -6.209738    1.161521   -0.817630
C      1.344196    1.185426   -0.508422
C     -5.719761   -1.129033    1.666726
C      0.090269    0.614679   -0.465784
C     -4.510086    0.856060    0.985844
C      2.224770   -0.437801    1.016214
C      2.419472    0.670546    0.226367
C     -3.125094    1.085471    1.410346
C      4.142609   -1.931715    1.266616
C      4.664648    0.939548   -0.705178
N     -2.194042    1.597786    0.818902
N     -4.743394   -0.578363    1.070406
O     -6.700442   -0.403526    2.322568
O     -2.852609    0.620501    2.740341
O      3.942023   -2.430655    0.130214
O      4.441600    0.090619   -1.588592
O      5.217833   -2.428342    1.983756
O      5.876940    1.580986   -0.618363
O      3.300662   -0.933871    1.737228
O      3.677134    1.232559    0.192160
S     -6.371224    1.874167   -2.475143
H      6.775317   -1.961201    0.142984
H      7.763180   -3.516588    0.100513
H      6.148090   -3.423939   -0.635201
H      7.152660    2.172481   -3.519022
H      6.074485    0.710083   -3.470350
H      5.507004    2.289354   -2.870228
H     -6.048598   -2.993884    2.655791
H     -6.535299   -2.897792    0.882239
H     -4.818805   -3.063738    1.347355
H     -5.698400    1.248470   -4.686724
H     -5.528985   -0.109488   -3.507085
H     -4.274382    1.162469   -3.546842
H      5.463697   -4.364205    1.296493
H      6.778801   -3.686964    2.307655
H      7.746340    1.978778   -1.329175
H      7.199976    0.223825   -1.538001
H     -1.071324   -0.935252    0.358241
H      0.833370   -1.897993    1.698745
H     -0.735088    1.617155   -2.197070
H     -1.795476    0.376435   -1.492588
H     -4.056006    0.988629   -1.087305
H     -4.687847    2.510990   -0.297561
H     -2.472185    2.722520   -0.999139
H     -0.886067    2.938675   -0.138636
H     -6.913024    1.712766   -0.161198
H     -6.478607    0.098921   -0.792077
H      1.508797    2.064361   -1.131256
H     -5.163285    1.396056    1.739414
H     -6.979470    0.485007    1.899602
H     -2.019102    0.945606    3.207691
