47

C      3.840373    0.768064    1.243986
C      4.161250   -1.526852    0.915356
C     -4.671818   -1.354849    1.645085
C     -3.518152   -1.719355    0.989962
C     -5.162173   -0.089929    1.459233
C     -2.869581   -0.816972    0.158487
C     -4.513120    0.800988    0.632217
C      1.236772    0.590813    1.428737
C      2.094462    0.942221   -0.922776
C     -2.701423    0.927914   -2.351847
C     -3.339009    0.462973   -0.048291
C      1.034743    1.231635    0.076553
C     -2.657115    1.440303   -0.934154
C      1.950185   -0.714851    1.307109
C      2.910896   -0.277034   -0.672614
C      1.303756   -1.645687    0.332063
C      2.047719   -1.486798   -0.979360
C     -1.295548    1.783688   -0.491322
N      3.254886   -0.439323    0.720905
O     -2.086594   -0.285404   -2.528237
O     -0.954796    2.980852   -0.195560
O     -0.262232    0.853723   -0.353469
O      2.159107   -2.613553   -0.187182
H      3.443135    1.691099    0.799748
H      4.929425    0.732448    0.985921
H      3.796464    0.807535    2.356226
H      5.072687   -1.192377    1.485179
H      4.538685   -1.989346   -0.004930
H      3.678152   -2.295466    1.586770
H     -5.196380   -2.050525    2.303292
H     -3.121948   -2.717950    1.130322
H     -6.071795    0.261753    1.948877
H     -1.966786   -1.116140   -0.348554
H     -4.887206    1.806885    0.473311
H      1.772505    1.255411    2.133983
H      0.244781    0.392046    1.913823
H      1.577129    0.789249   -1.916814
H      2.767557    1.828500   -1.120229
H     -3.760634    0.827094   -2.665817
H     -2.242286    1.644285   -3.066337
H      1.075564    2.345867    0.273932
H     -3.251197    2.380752   -0.919090
H      2.034001   -1.240372    2.271695
H      3.826634   -0.236777   -1.281684
H      0.222173   -1.813942    0.334908
H      1.513877   -1.498086   -1.927772
H     -1.957127   -0.424514   -3.494772
