45

C      6.175509   -0.706334    0.388821
C     -0.132443   -2.750151    1.352931
C     -2.700764    3.261340   -1.065875
C     -1.713235    2.332098   -1.310606
C     -3.873172    2.952899   -0.359898
C      0.389699    0.373946   -1.457290
C     -2.404715   -1.604393    0.228257
C      2.761144    0.344958   -0.756552
C     -4.615214   -0.300656    0.988435
C      1.280172   -1.368634    0.122459
C      4.976953    0.079842   -0.017009
C      1.532584   -0.487196   -1.067195
C     -3.389282   -0.472286    0.396296
C     -1.919723    1.048474   -0.824433
C     -0.961813   -0.060578   -1.020139
C     -4.070327    1.666786    0.122334
C     -1.007924   -0.942576    0.168118
C     -3.074976    0.766819   -0.134811
N      3.884299   -0.461957   -0.375619
N     -5.013285    1.000828    0.813277
N     -0.008794   -1.984004    0.124732
O      5.102658    1.467049    0.012281
H      7.087321   -0.154095    0.041554
H      6.214136   -1.701592   -0.092165
H      6.257606   -0.840026    1.470256
H     -0.450601   -2.070729    2.164196
H     -0.855766   -3.579071    1.229879
H      0.874549   -3.159782    1.593629
H     -2.604184    4.284083   -1.417536
H     -0.821568    2.568917   -1.849756
H     -4.640449    3.682296   -0.172146
H      0.589617    1.389024   -0.999630
H      0.403245    0.564903   -2.550487
H     -2.601862   -2.105381   -0.739286
H     -2.470185   -2.341398    1.024945
H      2.539884    1.083818    0.057248
H      3.050293    0.953231   -1.660446
H     -5.157769   -1.086445    1.504662
H      1.395181   -0.783934    1.078192
H      2.039905   -2.176017    0.175666
H      1.829396   -1.163250   -1.910968
H     -1.406137   -0.665679   -1.872287
H     -0.926516   -0.374276    1.110655
H     -5.893027    1.437927    1.145691
H      4.329580    2.081206   -0.125566
