45

C      5.916472   -0.496130    1.215623
C      0.136472    2.026211    1.983506
C     -3.146889   -0.356220   -3.307373
C     -1.916477   -0.159329   -2.660870
C     -4.320498   -0.354386   -2.583848
C      0.458980   -0.744466   -1.031871
C     -1.989201    0.439248    1.573261
C      2.369383   -1.497074    0.403742
C     -4.545295    0.134382    1.000269
C      1.554105    0.786717    0.623422
C      4.715665   -0.974214    0.484913
C      1.712627   -0.348457   -0.325062
C     -3.188065    0.216079    0.755573
C     -1.880871    0.036704   -1.296877
C     -0.630208    0.239881   -0.575293
C     -4.281336   -0.154634   -1.196622
C     -0.732634    0.038394    0.908939
C     -3.059368    0.034642   -0.599390
N      3.566093   -1.043118    1.058332
N     -5.174001   -0.089501   -0.197924
N      0.428064    0.691780    1.494318
O      4.879033   -1.344754   -0.841874
H      6.779498   -1.119382    0.896448
H      5.790062   -0.514099    2.313962
H      6.135051    0.530831    0.850855
H     -0.291211    1.971866    3.003710
H     -0.437827    2.639367    1.276835
H      1.141541    2.529696    2.107722
H     -3.166543   -0.510548   -4.386086
H     -1.034491   -0.170232   -3.274295
H     -5.254064   -0.502352   -3.063858
H      0.537855   -0.752287   -2.119175
H      0.131226   -1.779305   -0.721581
H     -1.965313    1.481839    1.958016
H     -2.118878   -0.198092    2.498270
H      2.585255   -2.361097   -0.222436
H      1.685489   -1.866130    1.222857
H     -5.029129    0.228827    1.958643
H      1.599215    1.769306    0.078124
H      2.473934    0.803092    1.278627
H      2.444225   -0.020545   -1.117700
H     -0.223797    1.248021   -0.797237
H     -0.573067   -1.061308    1.122493
H     -6.198292   -0.198131   -0.344565
H      4.117212   -1.716905   -1.404524
