44

C     -1.510316   -3.866052    0.294777
C      6.366770    1.115582    0.390481
C     -2.228654   -2.696723    0.851315
C      3.214471   -0.444692   -0.487392
C      2.421377    0.049234    0.651166
C      4.714744   -0.355104   -0.135591
C     -3.184739    0.586005   -0.532447
C      0.353274   -0.743918   -0.396248
C     -1.839201    0.478946   -0.348383
C     -1.116041   -0.847554   -0.238640
C     -3.737586    1.811850   -0.641436
C     -1.146672    1.654139   -0.290425
N     -5.918614    3.387156    0.388002
N     -1.499843   -1.464802    0.976909
N      1.017460    0.135493    0.515555
O     -5.440572    3.147824   -2.161070
O     -6.235004    1.126626   -0.918053
O      1.217275    1.942474   -1.395329
O      0.969063    2.770708    0.929572
O      5.028215    1.012126    0.094192
S     -2.341586    2.952649   -0.488645
S     -5.375621    2.358922   -0.881402
S      0.597338    1.748385   -0.066396
H     -2.168894   -4.267390   -0.545259
H     -1.483851   -4.739834    0.997070
H     -0.489193   -3.718183   -0.041251
H      6.596560    2.201122    0.570272
H      6.974282    0.790620   -0.501147
H      6.631658    0.544421    1.292504
H     -3.205796   -2.462613    0.333868
H     -2.567969   -2.949337    1.909039
H      3.009636   -1.550139   -0.598610
H      3.045114    0.048474   -1.436362
H      2.791497    1.057868    0.954932
H      2.607863   -0.576467    1.575254
H      5.325422   -0.693807   -0.993126
H      4.952514   -0.894107    0.797997
H     -3.884903   -0.307248   -0.600798
H      0.527100   -0.335357   -1.451479
H      0.777335   -1.756089   -0.422410
H     -1.443635   -1.492525   -1.129835
H     -6.511236    2.921811    1.096652
H     -5.118595    3.892540    0.815284
H     -0.690447   -1.573032    1.659743
