20

C     -2.819888    0.150906   -0.161426
C     -2.058498   -0.981473   -0.341227
C     -2.173327    1.304990    0.223959
C     -0.699064   -0.940347   -0.137597
C     -0.809109    1.327961    0.423662
C     -0.024188    0.195109    0.247096
C      1.447175    0.217397    0.462438
C      2.070224    0.277306   -0.888630
N      1.920563   -0.910783    1.222937
O      1.720493    1.229166   -1.630326
O      2.983162   -0.628728   -1.355540
H     -3.906367    0.139794   -0.318637
H     -2.560342   -1.879435   -0.640927
H     -2.752481    2.213681    0.372753
H     -0.094967   -1.836738   -0.280181
H     -0.288807    2.230440    0.727114
H      1.762882    1.150722    0.982004
H      1.291229   -1.731283    1.208191
H      2.028826   -0.609071    2.216937
H      2.962485   -0.919614   -2.332601
