42

C     -0.087447    3.172703    0.233298
C      3.370368   -1.176979    0.740302
C     -3.308705   -2.328903    0.445808
C      1.321397    1.846501   -1.319591
C      2.064899    0.782441   -0.605592
C     -1.564891    0.288567   -1.571757
C     -2.783142   -0.420468   -0.961855
C     -0.059764    2.098693   -0.834084
C      2.183363   -0.603134    1.470286
C     -0.805578    0.877019   -0.379039
C      1.392439    0.371968    0.676305
C      1.298405   -1.769929    1.766783
C      0.086548   -1.478826   -0.328795
C     -2.187129   -1.326334    0.128014
C     -0.007712   -0.120243    0.360475
O      1.106495   -2.181220    2.939777
O      0.724900   -2.337725    0.637383
O     -1.181514   -2.026182   -0.458362
O     -1.908797   -0.657849    1.270754
O     -0.671374   -0.453130    1.564507
H      0.926366    3.535955    0.500300
H     -0.664500    4.067304   -0.070068
H     -0.608662    2.774828    1.140306
H      3.073556   -1.900286   -0.047913
H      3.937622   -1.784363    1.504953
H      4.061476   -0.443877    0.344631
H     -3.219531   -3.212463   -0.218183
H     -4.307676   -1.853229    0.317935
H     -3.199507   -2.637757    1.500493
H      1.862999    2.837093   -1.303878
H      1.296184    1.581668   -2.417813
H      3.065590    1.213342   -0.305113
H      2.192203   -0.113593   -1.232631
H     -1.952624    1.136560   -2.146048
H     -0.947951   -0.417586   -2.140298
H     -3.224820   -1.109599   -1.710570
H     -3.476059    0.313305   -0.552412
H     -0.641602    2.519522   -1.707693
H      2.538344   -0.208021    2.444292
H     -1.622260    1.292891    0.287375
H      1.277659    1.299728    1.296548
H      0.650432   -1.448389   -1.258829
