37

C     -1.759850    1.622550   -0.028752
C      2.961851   -0.252184   -0.625055
C      2.142343   -1.325699   -0.880206
C      2.490933    0.743509    0.199916
C      0.877876   -1.386978   -0.312828
C      1.219120    0.686169    0.773178
C     -0.950053   -0.461113    1.118606
C     -2.003405    0.178703    0.245933
C      0.397446   -0.391942    0.516289
N     -2.113079   -0.531221   -1.026692
C      0.539764   -0.507716    0.666060
C     -0.443450    0.082645   -0.345756
C      1.900448   -0.027332    0.324426
C     -1.817566   -0.360737   -0.108621
O      2.827072   -0.787355   -0.128953
O      2.221085    1.333983    0.496131
O     -2.239836   -1.392485   -0.716114
O     -2.718790    0.249515    0.727488
H     -1.322276    2.120323    0.836837
H     -1.124209    1.693656   -0.953674
H     -2.734874    2.083190   -0.326310
H      3.947459   -0.177413   -1.051040
H      2.486108   -2.115542   -1.520380
H      3.111075    1.594266    0.416155
H      0.234962   -2.226141   -0.511163
H      0.926951    1.508970    1.408598
H     -1.277732   -1.526059    1.266802
H     -1.003174    0.006661    2.123196
H     -2.991293    0.071543    0.737001
H     -2.231230   -1.536965   -0.778643
H     -1.284950   -0.378281   -1.627769
H      0.342482   -0.150670    1.699059
H      0.561716   -1.617030    0.611313
H     -0.049296   -0.176441   -1.355032
H     -0.323532    1.208927   -0.279076
H      2.906407    1.716843   -0.184668
H     -3.706506    0.427854    0.468250
