37

C     -4.533518   -0.818299    0.235360
C     -0.410424    2.406776   -2.034182
C     -1.766397    2.412497   -1.768749
C      0.378294    1.370112   -1.506822
C     -2.304002    1.412985   -1.000949
C      2.486873    0.406211    1.050433
C      0.143173   -1.406922    1.030736
C      3.836627    0.668918    1.315034
C     -1.177037   -0.903553    1.505404
C      3.105995   -0.898021   -0.796079
C      2.091551   -0.378308   -0.000386
C      0.670182   -0.716933   -0.217169
C     -0.144295    0.355257   -0.731424
C     -1.524468    0.396153   -0.484059
C      4.844177    0.136145    0.509515
C      4.432836   -0.650128   -0.547740
C     -2.134825   -0.650608    0.366983
Cl     6.560767    0.429653    0.840234
Cl     5.715707   -1.331821   -1.557365
N     -3.402578   -0.238193    0.924608
H     -4.935050   -1.704181    0.784404
H     -4.328005   -1.094328   -0.788544
H     -5.352613   -0.042531    0.318833
H      0.010068    3.177397   -2.640432
H     -2.414728    3.169586   -2.139211
H      1.436491    1.395137   -1.738144
H     -3.368544    1.391926   -0.773733
H      1.722191    0.841781    1.701967
H      0.193349   -2.509040    0.925232
H      0.885188   -1.189160    1.854492
H      4.139487    1.287543    2.136678
H     -1.636703   -1.584184    2.235741
H     -0.978493    0.110159    1.961479
H      2.809812   -1.527842   -1.638404
H      0.659314   -1.538811   -1.011415
H     -2.282574   -1.577046   -0.247217
H     -3.427829   -0.608326    1.924894
