52

C     -6.063957   -0.721913    1.428409
C     -6.629320   -2.302358   -0.308206
C      4.090274   -1.608295   -2.585326
C      5.847641   -1.612320    2.663132
C     -1.171102    0.787243   -2.841749
C     -2.413787    0.216996   -2.933381
C     -3.475646   -0.134957    0.533954
C      2.980980    0.184746   -0.770387
C      3.869109    0.166792    1.837524
C      0.885230    2.158094    2.235861
C     -5.663071   -1.353155    0.349085
C     -0.556346    1.112620   -1.640963
C     -2.507182    0.264672   -0.525591
C      2.431136    1.073727    0.129793
C     -3.072405   -0.039355   -1.757747
C     -4.310264   -1.145334   -0.195012
C      2.872348    1.068231    1.436512
C      3.971401   -0.705201   -0.354449
C      4.424535   -0.725452    0.943955
C      0.343796    2.166545    0.842004
C     -1.253885    0.838432   -0.466322
C      0.754230    1.716226   -1.546389
C      1.394562    2.040513   -0.243653
O      1.379383    1.979302   -2.586306
O      1.989376    3.291982   -0.390566
O      4.535205   -1.604294   -1.241719
O      5.396780   -1.609310    1.322127
O      2.287311    1.978282    2.294005
O     -4.335108   -0.606921   -1.525028
O     -0.639728    1.162603    0.722422
H     -7.082261   -0.901555    1.817329
H     -5.485964   -0.023696    2.002080
H     -6.202975   -2.781567   -1.196218
H     -6.929724   -3.057845    0.457705
H     -7.548676   -1.711063   -0.531192
H      3.143425   -2.183608   -2.701446
H      4.048924   -0.603917   -3.017877
H      4.854336   -2.187441   -3.180615
H      6.802210   -2.181971    2.740263
H      5.082036   -1.982986    3.368489
H      6.103669   -0.572293    2.997228
H     -0.644377    0.992539   -3.774777
H     -2.853604   -0.019429   -3.888656
H     -2.997705   -0.614535    1.387106
H     -4.122551    0.735613    0.778725
H      2.630723    0.197467   -1.779679
H      4.209166    0.170317    2.859031
H      0.585120    3.102321    2.762030
H      0.426173    1.284508    2.798166
H     -3.728351   -2.102514   -0.254817
H     -0.227518    3.136048    0.716846
H      2.576427    3.267467   -1.182841
