17

C      1.817580   -0.878236   -0.108685
C     -1.180607    1.463636    0.183722
C      1.010757    0.405870   -0.201247
C     -1.077784   -0.957317   -0.401763
C     -0.401943    0.188761    0.282665
Br    -2.816030   -1.292529    0.375490
H      1.696576   -1.370893    0.872211
H      2.884661   -0.576361   -0.182479
H      1.604614   -1.528997   -0.968177
H     -1.093718    2.038285    1.148045
H     -2.246832    1.267142   -0.045750
H     -0.696027    2.116488   -0.578455
H      0.974929    0.685652   -1.273406
H      1.529814    1.181886    0.393153
H     -0.488054   -1.877342   -0.283946
H     -1.190926   -0.794412   -1.496134
H     -0.327011   -0.071632    1.365772
