29

C      2.818593   -2.070183    0.837877
C     -1.431459   -0.180499    1.205016
C     -2.103865    0.402063   -0.957673
C     -2.472926   -1.115456    1.254412
C     -3.135204   -0.514868   -0.925289
C     -0.142599    1.557236    0.069601
C      2.371208   -1.031063   -0.111544
C     -1.236286    0.597242    0.081030
C     -3.325680   -1.279904    0.182773
C      1.162853    1.031003   -0.447283
C      2.144628    2.140410   -0.382994
N      1.684476   -0.061685    0.303883
O      2.703634   -1.121513   -1.446470
O     -4.373528   -2.214837    0.221820
O      3.209059    1.996820    0.260801
O      1.936598    3.357667   -1.015887
H      3.646582   -1.689658    1.502253
H      3.230758   -2.965372    0.332537
H      1.983441   -2.392936    1.473995
H     -0.816850   -0.124250    2.092599
H     -1.998634    0.979929   -1.856983
H     -2.644272   -1.734303    2.122883
H     -3.787861   -0.622957   -1.778337
H     -0.457674    2.440844   -0.517708
H      0.007553    1.923536    1.109468
H      1.119651    0.717725   -1.508421
H      2.816231   -0.283646   -2.038315
H     -5.283231   -1.941969    0.565583
H      2.374804    4.200624   -0.629627
