124

C     -7.205757    4.445453   -1.901949
C      6.143777    0.362941   -2.968952
C      8.399114    2.280965   -0.436874
C      3.286521    2.067936    2.129920
C     -1.873315    2.860696    1.737358
C     -1.466947   -4.388621   -0.849701
C      6.898645    1.785586    3.554251
C     -5.773583    4.054008   -2.198424
C      4.772112   -0.031331   -2.512303
C     -6.565903   -1.646869    3.658913
C     -5.536540   -1.359950    4.526022
C      5.118963   -3.053122   -2.047752
C     -6.330552   -1.624919    2.297920
C     -4.280836   -1.052543    4.065754
C     -5.287759   -1.448155   -0.736771
C      5.589687   -1.997920   -1.423508
C      2.573088   -2.667890    0.810766
C      3.705335   -3.030664   -2.519883
C     -6.392242   -0.487458   -0.984821
C      2.729544   -3.394574   -0.469496
C      0.227391   -1.019417   -0.093520
C      0.371892    1.279578    1.328677
C     -3.864578    2.579654   -1.530612
C     -2.572691    0.389510   -1.456560
C     -4.828409    0.617821   -2.436353
C     -6.269203    1.879462   -1.073760
C      6.979193    1.865046   -0.297283
C     -3.848905    1.070158   -1.337734
C     -5.059550   -1.314676    1.797436
C     -4.532007   -1.216367    0.522951
C      1.436420   -0.597842    0.452482
C     -0.903431   -0.304532    0.066188
C     -4.071829   -1.038076    2.681550
C      1.537996    0.557525    1.174283
C     -0.837204    0.883982    0.798572
C     -3.233977   -0.882235    0.642104
C      3.311235   -1.196936   -0.959334
C      3.534531   -0.468424    1.475243
C      5.266747    0.086592   -0.111612
C     -2.017196   -2.016138   -1.151163
C      5.860608   -0.035632    2.270529
C     -5.296144    2.972950   -1.236818
C      4.748145   -0.819789   -1.195788
C      2.780625   -1.221157    0.408423
C     -2.261246   -0.688197   -0.472145
C      5.004443   -0.558991    1.243150
N     -2.964605   -0.777468    1.956142
N      2.899691    0.766321    1.634123
N     -6.090384    0.658862   -1.784507
N      2.862714   -2.414535   -1.528949
O      6.124397    2.761266   -0.227623
O     -2.083934   -2.170242   -2.379978
O      6.544164   -0.824952    3.039952
O     -5.225267    3.634040    0.017579
O      5.200607   -1.983738    1.104840
O     -1.972546    1.684744    1.004759
O     -1.712066   -3.087917   -0.342957
O      6.051379    1.293813    2.544400
O      6.547591    0.566112   -0.240230
O      1.134907    0.722115   -0.080184
O     -1.550227    0.429876   -0.195637
O      0.030695   -1.394161   -1.047132
O     -0.073195   -1.042380    1.411296
S     -0.115163   -0.389880    0.066578
H     -7.371421    4.223494   -0.806902
H     -7.296824    5.552678   -1.970549
H     -7.897601    3.909922   -2.552401
H      6.286430    0.070307   -4.069895
H      6.958146   -0.093846   -2.377163
H      6.323834    1.456474   -3.000193
H      8.964097    1.527235   -1.032429
H      8.919411    2.288518    0.564894
H      8.494079    3.307430   -0.833243
H      3.586876    2.045085    3.209605
H      2.397860    2.787235    2.167308
H      3.993652    2.612608    1.477617
H     -2.870146    3.388080    1.672744
H     -1.140822    3.557236    1.293619
H     -1.648692    2.721604    2.802654
H     -0.381657   -4.574076   -0.959435
H     -1.880887   -5.145648   -0.153119
H     -1.960054   -4.480433   -1.849089
H      7.034870    2.877928    3.367430
H      6.376017    1.699818    4.513161
H      7.896579    1.332184    3.547982
H     -5.123277    4.941506   -2.168786
H     -5.753883    3.646752   -3.226444
H      4.233696    0.963078   -2.347177
H      4.165120   -0.500857   -3.303668
H     -7.561662   -1.891338    3.995171
H     -5.727214   -1.378816    5.606759
H      5.727557   -3.948076   -2.234378
H     -7.131162   -1.852432    1.588238
H     -3.454444   -0.824583    4.692742
H     -4.643595   -1.698289   -1.584080
H     -5.809685   -2.447659   -0.561268
H      6.631041   -2.071658   -1.098268
H      3.208890   -3.002651    1.639391
H      1.517786   -2.819931    1.182586
H      3.561175   -2.716762   -3.547503
H      3.388240   -4.126660   -2.527032
H     -7.247177   -1.009661   -1.488639
H     -6.778122   -0.126270   -0.017519
H      1.949793   -4.133794   -0.703369
H      3.687318   -3.990932   -0.399534
H      0.222304   -1.935158   -0.656786
H      0.402440    2.203568    1.894184
H     -3.727049    2.750054   -2.634701
H     -3.119530    3.125001   -0.971793
H     -2.545841   -0.109596   -2.483714
H     -1.762808    1.156588   -1.558177
H     -4.531264   -0.283593   -2.945782
H     -4.890002    1.391793   -3.262432
H     -6.465999    1.616263    0.009551
H     -7.275295    2.280625   -1.408291
H     -4.266141    0.961979   -0.321467
H      2.717753   -0.385242   -1.514836
H      3.348430   -1.061803    2.433617
H      4.588455    0.969073   -0.111075
H     -2.020750   -0.541192    2.417575
H     -6.000382    3.422263    0.584510
H      5.553584   -2.259827    1.982875
H      2.013555    0.304951   -0.207507
H     -1.440573    1.369479    0.052585
