52

C      5.929968   -3.920170   -1.391089
C      5.111019   -4.707571    0.792425
C     -2.045410    5.880541    1.113324
C     -6.599448    2.663600    1.805602
C      0.880367   -0.508638   -2.953524
C      1.874034   -1.426189   -3.231325
C      3.029392   -2.710802   -0.048637
C     -1.906234    3.131106    0.724427
C     -4.085998    1.563350    1.052299
C     -1.495487   -1.060718    0.524294
C      4.924142   -4.118714   -0.559866
C      0.523024   -0.252350   -1.666234
C      2.176417   -1.854339   -0.915941
C     -1.797314    1.778302    0.523173
C      2.539552   -2.114796   -2.223764
C      3.554951   -3.736081   -1.000524
C     -2.891046    0.966348    0.684419
C     -3.117309    3.726158    1.095985
C     -4.215088    2.916522    1.258516
C     -0.389956   -0.118959    0.979065
C      1.181467   -0.934632   -0.653386
C     -0.514142    0.699518   -1.282072
C     -0.516854    1.154046    0.130947
O     -1.327009    1.072581   -2.146050
O      0.565672    1.988374    0.348308
O     -3.215588    5.106411    1.298171
O     -5.447582    3.421375    1.623623
O     -2.755021   -0.399526    0.474904
O      3.558866   -3.072925   -2.236122
O      0.848327   -0.704000    0.680722
H      6.928041   -4.196002   -1.077359
H      5.800704   -3.497401   -2.363711
H      4.541659   -4.151433    1.568717
H      6.194643   -4.625457    1.054110
H      4.828072   -5.772383    0.830296
H     -1.654599    5.806612    0.065492
H     -1.218632    5.518420    1.788866
H     -2.194173    6.936691    1.347410
H     -6.691904    1.955302    0.955220
H     -7.491813    3.320596    1.801544
H     -6.538148    2.071912    2.763397
H      0.358420    0.031483   -3.744318
H      2.167271   -1.638011   -4.263363
H      3.820726   -2.137251    0.472963
H      2.355161   -3.183174    0.718528
H     -1.062989    3.811304    0.607095
H     -4.932667    0.882383    1.170321
H     -1.238675   -1.579866   -0.396458
H     -1.605867   -1.827841    1.345424
H      2.883062   -4.622303   -0.973038
H     -0.473948    0.123570    2.049640
H      0.847946    2.345027   -0.522447
