24

C     -2.880924    0.596386   -0.303687
C      3.003881   -0.744919    0.072196
C     -1.363495   -1.371794   -0.147105
C      0.036150   -1.567805    0.397222
C      2.157315    1.558586   -0.033687
C     -0.138667    2.064003    0.128902
C     -1.713809   -0.015849    0.431239
C      1.892558    0.218543    0.094596
C      0.589292   -0.182132    0.240740
C     -0.463848    0.737280    0.261482
N      1.145112    2.450110   -0.014399
H     -2.762389    0.591988   -1.396773
H     -3.790001    0.017193    0.018585
H     -3.023131    1.626119    0.081151
H      3.393107   -0.875289    1.100481
H      2.596015   -1.735949   -0.233889
H      3.812497   -0.472522   -0.629095
H     -2.060925   -2.164775    0.146553
H     -1.259946   -1.253477   -1.244225
H     -0.021485   -1.832818    1.462375
H      0.614820   -2.320270   -0.132975
H      3.161672    1.952218   -0.152960
H     -0.903713    2.824997    0.136643
H     -2.020086   -0.099826    1.499028
