31

C     -4.714101   -0.901124   -0.423785
C     -3.732049   -1.858805   -0.320227
C     -4.403804    0.422430   -0.201452
C     -2.454635   -1.483161    0.003440
C     -3.117588    0.806714    0.125242
C      4.167037   -0.051980   -0.043699
C      2.361593   -1.546913   -0.295309
C     -0.434067    1.619145    0.426410
C     -2.127984   -0.141839    0.231340
C      3.737138   -1.330164   -0.216958
C      3.312385    1.044678    0.058704
C      1.003177    1.882426    0.056847
C     -0.723426    0.161889    0.580838
C      1.493057   -0.492659   -0.198546
C      1.967917    0.798771   -0.022700
O      4.581270   -2.420292   -0.319214
O      3.808812    2.300438    0.233247
O      1.320164    3.051230   -0.174222
O      0.113253   -0.629444   -0.265466
H     -5.715478   -1.205178   -0.678697
H     -3.924051   -2.907738   -0.484552
H     -5.197194    1.172024   -0.287934
H     -1.674750   -2.240547    0.086056
H     -2.914379    1.841732    0.294274
H      5.220144    0.165594    0.022844
H      1.962805   -2.538850   -0.432728
H     -1.051569    2.028431   -0.426915
H     -0.715894    2.156972    1.348867
H     -0.548542   -0.137240    1.632735
H      4.946543   -2.750394   -1.185664
H      3.454216    3.183854    0.335260
