58

C      5.742190   -1.514611    0.341939
C     -6.250487   -1.285734    1.914919
C     -5.456893    3.446948   -0.887123
C      1.509366    3.706261    1.722211
C     -1.035103   -2.626021    0.070437
C      0.463846   -2.624781    0.251988
C      1.702669    0.086336   -1.448546
C     -3.791043   -0.805496    0.476583
C     -3.468302    1.526152   -0.870883
C      2.551946   -2.461304   -0.875768
C      4.687277    1.063411   -0.797778
C      4.699193   -1.333924   -0.754533
C     -1.469258   -1.296688   -0.398842
C      2.590744   -0.050953   -0.233412
C     -2.616162   -0.570298   -0.213557
C      3.315290   -1.351212   -0.183638
C      3.503285    1.118150   -0.216143
C     -2.435708    0.614333   -0.906160
C      0.736209   -1.064913   -1.586653
C     -4.816001    0.115238    0.503602
C     -4.643053    1.303425   -0.187151
C     -0.602562   -0.582139   -1.184237
C      3.120731    2.355305    0.440321
N     -1.216076    0.566821   -1.473513
N      1.142618   -2.246292   -0.929251
O      3.896424    3.340101    0.451450
O     -5.991790   -0.113067    1.190628
O     -5.652285    2.243288   -0.177537
O      1.892761    2.510354    1.081255
O      5.028442   -0.128749   -1.417250
H      5.801063   -2.596556    0.587227
H      5.348423   -1.018825    1.259584
H      6.737509   -1.164763    0.044746
H     -5.698282   -1.337617    2.870458
H     -5.987858   -2.203200    1.320312
H     -7.356156   -1.368853    2.101134
H     -5.192269    3.205284   -1.918851
H     -4.573392    3.952531   -0.411585
H     -6.328167    4.128555   -0.805118
H      0.798247    4.218120    1.033515
H      2.343532    4.401395    1.902133
H      0.948137    3.534896    2.661584
H     -1.392042   -3.389306   -0.626118
H     -1.494732   -2.810391    1.058137
H      0.726409   -2.044765    1.151353
H      0.745020   -3.690992    0.479654
H      1.175247    1.056278   -1.364267
H      2.384417    0.176398   -2.326846
H     -3.919197   -1.751069    1.021609
H     -3.366083    2.460694   -1.397755
H      2.929195   -2.500071   -1.935594
H      2.787791   -3.417863   -0.409076
H      5.371035    1.908560   -0.797156
H      4.862888   -2.148032   -1.518865
H      1.945386    0.056479    0.687442
H      3.395681   -1.656292    0.891682
H      0.705100   -1.296214   -2.693667
H     -0.835170    1.355684   -2.061270
