42

C      5.147175    1.048007   -0.036062
C      4.835872   -1.396963    0.097367
C     -5.721528    1.048020    0.254811
C     -4.635847    1.900819    0.371311
C     -2.805766   -2.498250   -1.050035
C     -5.539545   -0.263826   -0.107175
C     -4.085805   -2.044746   -0.759225
C     -3.353982    1.445550    0.131441
C     -1.763852   -1.656606   -0.926198
C      1.849580   -0.506617   -0.214439
C      0.127354    1.291831   -0.268055
C      4.153578   -0.022348    0.133186
C     -4.265122   -0.750248   -0.352595
C      1.148318    0.588482    0.611023
C     -3.205952    0.113783   -0.226343
C     -1.892340   -0.297389   -0.510804
N      3.074892    0.015133   -0.805927
O      2.016845    1.344868    1.272444
O     -0.913523    0.477031   -0.391740
Cl     0.690921    0.000000    0.000000
H      4.648441    2.030122   -0.062127
H      5.847109    1.021057    0.857573
H      5.757036    0.923019   -0.953976
H      4.790566   -1.830173   -0.924701
H      4.286762   -2.088687    0.756531
H      5.854535   -1.270062    0.442072
H     -6.716303    1.398553    0.438426
H     -4.777877    2.949176    0.657319
H     -2.714169   -3.539622   -1.365198
H     -6.374086   -0.947386   -0.201761
H     -4.943091   -2.710393   -0.815274
H     -2.503672    2.083974    0.204682
H     -0.751422   -1.958936   -1.135459
H      1.161067   -0.637029   -1.098396
H      1.945467   -1.457005    0.255077
H     -0.043795    2.301697    0.221515
H      0.665500    1.479130   -1.238652
H      3.723388    0.007794    1.176561
H      0.564668   -0.019754    1.375049
H      3.167851    0.214805   -1.735461
H      2.241675    2.213190    0.868464
H     -0.690921    0.000000    0.000000
