43

C      1.984785    3.097229   -0.626518
C      3.389038    0.262465    0.315123
C     -3.946747   -0.479889    1.362479
C      2.923964    1.535550    0.960699
C     -2.949649    0.159008    2.320338
C     -3.870484    0.038246   -1.220106
C      2.886185   -1.998433    0.235276
C     -1.729227    0.546215   -2.012459
C      0.275251   -1.789987   -0.514185
C      0.542491    1.584217    0.582816
C      2.363410   -0.726083    0.054010
C     -3.332593   -0.119035    0.035936
C     -3.065494    0.377437   -2.275187
C      1.044458   -0.641158   -0.323863
C     -1.161145    0.396050   -0.767298
C      0.294146    0.596714   -0.568952
C      2.139656   -3.136061    0.051322
C      0.832474   -3.055653   -0.323317
C     -1.989816    0.054576    0.279336
Br    -3.757743    0.609249   -4.042341
Cl     2.846793   -4.740085    0.293697
N      1.806311    2.134909    0.380188
O      0.070911   -4.203697   -0.511370
O     -1.728341   -0.168923    1.640937
H      1.009758    3.324077   -1.102322
H      2.677618    2.718018   -1.414744
H      2.406198    4.024594   -0.213284
H      4.257956   -0.178604    0.861089
H      3.827223    0.567139   -0.682844
H     -4.957940   -0.081775    1.473121
H     -3.905854   -1.595500    1.423006
H      2.673067    1.269493    2.030996
H      3.747185    2.275333    1.040399
H     -3.138485    1.248979    2.299333
H     -2.989198   -0.268871    3.325399
H     -4.920656   -0.100954   -1.393411
H      3.921021   -2.137303    0.533745
H     -1.108614    0.818231   -2.880329
H     -0.742636   -1.736025   -0.808955
H     -0.241608    2.384839    0.454712
H      0.403521    1.126609    1.559768
H      0.695839    1.105202   -1.470553
H      0.516973   -5.096345   -0.361685
