43

C     -0.653668   -3.655558    0.461985
C     -3.008909   -1.195399    0.158327
C      4.447359    1.202360    0.623303
C     -2.066647   -2.098927   -0.574217
C      3.976355    0.698924    1.981361
C      3.256184    0.434013   -1.598052
C     -3.519674    1.032717   -0.552076
C      0.960440   -0.149421   -1.354947
C     -1.027005    2.055559    0.036081
C     -0.505050   -1.435728    1.141089
C     -2.550193    0.207296   -0.027411
C      3.348771    0.725961   -0.255037
C      2.072741   -0.002183   -2.155463
C     -1.315044    0.733395    0.259354
C      1.054642    0.143967   -0.006863
C     -0.148252   -0.018534    0.832016
C     -3.254828    2.364356   -0.785413
C     -2.002279    2.873359   -0.488679
C      2.243262    0.581359    0.549437
Br     1.929883   -0.411279   -4.021100
Cl    -4.472723    3.420398   -1.449119
N     -0.791381   -2.257592    0.021658
O     -1.669973    4.210026   -0.700604
O      2.564096    0.930790    1.865963
H     -1.240083   -3.705232    1.423557
H      0.375726   -3.901215    0.723759
H     -1.133019   -4.355674   -0.233963
H     -4.003406   -1.278867   -0.363803
H     -3.190532   -1.463454    1.197662
H      5.432986    0.793109    0.347608
H      4.462013    2.323729    0.701723
H     -2.018097   -1.714004   -1.635741
H     -2.598245   -3.090504   -0.685181
H      4.416897    1.235931    2.818796
H      4.140549   -0.395616    1.996474
H      4.122016    0.539064   -2.270079
H     -4.507679    0.597438   -0.777868
H      0.040096   -0.493881   -1.813952
H     -0.025072    2.442604    0.278323
H     -1.287935   -1.422797    1.925664
H      0.399392   -1.878511    1.655935
H      0.042512    0.483371    1.825582
H     -2.296227    4.894651   -1.076090
