55

C     -3.387662   -0.773823   -2.797649
C     -7.490216    1.388915    2.242219
C     -7.610880    0.213418    2.902791
C     -6.609044    1.641277    1.238900
C     -6.744853   -0.807977    2.498566
C      6.531103    1.151304    0.016015
C      7.576338    1.441594    0.884357
C     -0.918779    0.824715   -1.893837
C     -1.267622   -0.179221    0.297674
C      0.216560    1.371751   -1.039666
C      0.221502   -0.568076    0.372639
C      5.803769   -0.558407    1.458375
C      1.736500   -0.305560   -1.510155
C      3.694592   -1.196765   -0.207191
C     -1.636734   -0.268506   -1.144146
C      2.606840   -1.461756   -1.191919
C      5.620764    0.152823    0.272419
C      7.728938    0.723623    2.043446
C      6.828698   -0.286308    2.327180
C     -5.721978    0.632162    0.808041
C     -5.843094   -0.551529    1.472450
C     -4.066702   -0.142630   -0.509470
F      8.739657    0.966834    2.930210
F      7.001815   -0.980360    3.474540
N     -4.825670    0.701711   -0.129162
N     -3.017295   -0.386811   -1.447107
N      0.994375    0.282931   -0.458975
O      3.229534   -1.833785   -2.409862
O      4.574037   -0.154125   -0.576111
S     -4.593873   -1.543915    0.664479
H     -2.600737   -1.466942   -3.175411
H     -4.397470   -1.229175   -2.832483
H     -3.314963    0.154486   -3.427880
H     -8.174902    2.193638    2.562554
H     -8.320206    0.077130    3.680095
H     -6.614908    2.631050    0.791202
H     -6.769151   -1.779879    2.969880
H      6.448192    1.740321   -0.882800
H      8.288234    2.232455    0.671325
H     -0.568447    0.510771   -2.885579
H     -1.651333    1.655331   -2.040775
H     -1.421836    0.841977    0.691138
H     -1.780460   -0.933517    0.932280
H     -0.170734    2.084969   -0.315132
H      0.902436    1.910879   -1.727486
H      0.254467   -1.638383    0.112755
H      0.505940   -0.384344    1.437417
H      5.130956   -1.342787    1.707649
H      2.413061    0.503014   -1.920166
H      1.091908   -0.579295   -2.383093
H      4.333794   -2.128771   -0.174920
H      3.321437   -1.077066    0.832592
H     -1.147294   -1.226952   -1.515306
H      2.065601   -2.369570   -0.865374
H      2.805799   -2.602862   -2.831533
