55

C      3.397143    2.719533    1.669231
C      7.774814   -1.660284   -0.985598
C      7.160129   -2.881585   -0.903867
C      7.140394   -0.507604   -0.618769
C      5.856827   -2.922436   -0.432390
C     -5.107818   -1.616748    0.405003
C     -5.530839   -2.948052    0.476079
C      1.163702   -0.030848    0.454473
C      0.807195    2.408616    1.010384
C     -0.301904    0.031848    0.026270
C      0.309878    2.327422   -0.411785
C     -7.086329   -1.069927   -0.844326
C     -1.916928    1.746206    0.057789
C     -4.364854    1.260716    0.103322
C      1.565493    1.122619    1.295427
C     -3.049084    0.863892   -0.475368
C     -5.862228   -0.667280   -0.245647
C     -6.714150   -3.309097   -0.109800
C     -7.501479   -2.361743   -0.777333
C      5.821931   -0.495701   -0.135455
C      5.236594   -1.731238   -0.066436
C      3.968312    0.507742    0.653141
F     -7.157569   -4.582432   -0.063421
F     -8.688448   -2.726022   -1.363245
N      5.071937    0.511519    0.253957
N      2.959671    1.400919    1.188042
N     -0.662278    1.299738   -0.504026
O     -3.034704    1.041901   -1.883255
O     -5.487126    0.625838   -0.341571
S      3.602934   -1.344361    0.570504
H      3.477757    3.465290    0.882020
H      4.451408    2.569546    2.044882
H      2.821965    2.994754    2.560031
H      8.814363   -1.578315   -1.357927
H      7.644137   -3.781104   -1.187108
H      7.703483    0.431873   -0.714913
H      5.292735   -3.842985   -0.333140
H     -4.181119   -1.370818    0.901281
H     -4.888908   -3.666743    1.006192
H      1.773336   -0.155452   -0.462248
H      1.235845   -0.959748    1.046382
H      1.467152    3.291129    1.093977
H     -0.016414    2.575234    1.736721
H     -0.967395   -0.331881    0.833656
H     -0.387604   -0.726230   -0.803291
H      1.195813    2.123486   -1.051482
H     -0.173949    3.294957   -0.666930
H     -7.658394   -0.280001   -1.351935
H     -2.128994    2.809001   -0.136550
H     -1.835913    1.642160    1.168273
H     -4.265775    1.160561    1.226839
H     -4.428010    2.388053   -0.051185
H      1.349796    0.913281    2.402574
H     -2.763399   -0.164288   -0.294484
H     -2.903130    0.185089   -2.356399
