48

C     -6.647562   -0.826974   -1.090930
C     -6.244889    0.038280   -2.093697
C      1.060556   -1.479117   -0.374879
C      6.849462    0.825575   -0.323856
C     -5.940474   -0.922213    0.076590
C     -5.124454    0.788956   -1.881131
C     -4.103295   -0.309776    1.574157
C     -3.167402    0.803974    1.860941
C     -0.269724   -1.159113   -0.894818
C      1.871234   -0.359159    0.218796
C      5.576896    1.596161   -0.361497
C      6.666407   -0.654482   -0.335529
C     -1.183308    0.713977    0.338803
C     -4.805848   -0.171995    0.312228
C     -2.511409    1.392656    0.676779
C     -4.418417    0.678904   -0.688985
C      4.278237   -0.412482    0.173714
N     -1.310747   -0.622226   -0.129881
N      3.181210   -0.943058    0.520091
N      4.390563    0.820552   -0.551324
N      5.509378   -1.048779    0.494082
O     -3.292046    1.442657   -0.485280
H     -7.530019   -1.408040   -1.282021
H     -6.811949    0.114025   -3.031684
H      1.679640   -1.856743   -1.232834
H      1.044214   -2.333625    0.359297
H      7.449843    1.101338    0.570561
H      7.491348    1.081835   -1.217390
H     -6.256964   -1.597359    0.860698
H     -4.788602    1.471714   -2.648630
H     -4.872282   -0.322509    2.427328
H     -3.588211   -1.298459    1.669810
H     -2.362158    0.454866    2.576074
H     -3.751631    1.601813    2.439181
H     -0.654819   -2.122209   -1.410477
H     -0.081040   -0.499750   -1.828555
H      1.893540    0.480656   -0.459222
H      1.502797   -0.054009    1.238148
H      5.623521    2.334097   -1.203094
H      5.478793    2.220448    0.565841
H      7.574225   -1.163977   -0.030000
H      6.448579   -0.977501   -1.388095
H     -0.645943    1.379698   -0.344967
H     -0.612105    0.639408    1.324330
H     -2.288711    2.478866    0.945769
H     -1.506709   -1.294677    0.671515
H      3.623498    1.119170   -1.188348
H      5.576779   -1.741394    1.258334
