27

C     -1.382375   -0.102824   -1.369389
C     -2.576535    1.135110    0.346644
C      1.769509   -1.142512   -1.025335
C     -1.933360   -1.249804    0.729094
C      1.829788    0.293342   -0.559013
C      3.209871    0.560321   -0.108196
C     -0.292259    0.521177    0.785379
C     -1.496681    0.077645    0.098734
N      0.935966    0.586384    0.505986
O      4.191185    0.381325   -0.861635
O      3.427054    1.017785    1.172484
O     -0.588088    0.987945    2.073677
S      1.092534   -2.163352    0.284940
S     -0.955435   -2.561109   -0.037866
H     -0.670304    0.560409   -1.872058
H     -1.156811   -1.183613   -1.608955
H     -2.396124    0.065953   -1.815943
H     -2.269372    1.843649    1.149640
H     -3.475197    0.614779    0.678031
H     -2.732261    1.745597   -0.582657
H      1.212115   -1.237859   -1.985311
H      2.797062   -1.496103   -1.246213
H     -3.024969   -1.404106    0.590044
H     -1.648113   -1.190101    1.795505
H      1.650369    0.985766   -1.437103
H      4.332533    1.021405    1.634854
H      0.149897    1.332791    2.664662
