24

C      3.752008    0.675214    0.865552
C      3.007623   -0.188186   -0.128018
C     -2.151245   -0.679624    1.251492
C     -1.669506   -1.250107   -1.381381
C     -1.325287    0.283335    0.374848
C     -2.292395    1.255568   -0.186648
C      0.703323   -0.700506   -0.733131
N     -0.695130   -0.564227   -0.588981
O     -2.550141    1.407152   -1.400898
O     -2.982216    2.078904    0.698747
O      1.186890   -1.465635   -1.604010
O      1.617480   -0.008318    0.066031
S     -2.965381   -1.567004   -0.142057
H      3.074284    0.869828    1.722488
H      4.689834    0.153348    1.209308
H      4.020110    1.617333    0.322991
H      3.254409    0.110848   -1.175656
H      3.268575   -1.274486    0.025990
H     -2.868339   -0.086636    1.817176
H     -1.506835   -1.341844    1.828008
H     -1.270867   -2.221970   -1.779955
H     -2.044903   -0.655986   -2.242574
H     -0.572719    0.805237    1.026503
H     -3.679574    2.747760    0.388248
