60

C     -4.734346   -3.130894    2.306930
C     -4.107936    4.575689   -1.570948
C     -3.437982   -3.344627    1.568665
C     -3.259276   -2.114223    0.647666
C     -1.974537   -2.344782   -0.073804
C     -3.129039    1.433010   -0.053793
C      4.588307    2.155454   -0.298420
C      5.697581    2.956360   -0.389626
C      1.198826   -0.793987    1.477847
C      2.479477   -1.590199    1.583280
C     -1.514147   -1.381648   -1.063813
C     -2.270444    0.982913   -1.165767
C     -4.094632    2.528110   -0.595010
C      5.436679    0.828357   -2.053339
C      4.449751    1.082168   -1.132663
C      6.676605    2.697522   -1.309661
C      6.546179    1.613270   -2.158899
C      1.168472   -0.320112    0.001909
C      2.686157   -2.139827    2.947280
C      3.289457    0.195204   -1.074136
C     -0.008353    0.470754   -0.309180
Cl     8.120469    3.664447   -1.494972
Cl     7.765709    1.238329   -3.348836
N      2.399553    0.442660   -0.216724
N     -1.269702   -0.020365   -0.802068
O      1.834346   -1.903766    3.814541
O      3.801175   -2.893348    3.232704
O      3.151630   -0.888747   -1.924451
O      0.052926    1.743585   -0.143529
O     -3.319873    3.564062   -1.073767
H     -5.179861   -4.126500    2.515700
H     -5.422525   -2.586220    1.627611
H     -4.522683   -2.546376    3.210155
H     -4.723855    4.139431   -2.398299
H     -3.425985    5.343643   -2.042200
H     -4.736665    5.068234   -0.806139
H     -2.585312   -3.436647    2.241905
H     -3.523725   -4.270618    0.966494
H     -4.133537   -1.911036    0.043950
H     -3.086283   -1.284561    1.408445
H     -1.245933   -2.691720    0.692694
H     -2.161511   -3.337071   -0.660231
H     -2.502676    1.925672    0.722537
H     -3.760186    0.621196    0.342144
H      3.822719    2.374190    0.433277
H      5.843098    3.819418    0.257015
H      0.309665   -1.375550    1.648807
H      1.279311    0.106245    2.141656
H      2.437462   -2.439752    0.874065
H      3.304662   -0.915925    1.278712
H     -2.199742   -1.471730   -1.982420
H     -0.541108   -1.804694   -1.525495
H     -1.782052    1.850506   -1.669567
H     -2.930863    0.524326   -1.946037
H     -4.737851    2.064685   -1.348567
H     -4.662116    2.887547    0.264978
H      5.335454   -0.018042   -2.716492
H      1.220308   -1.221502   -0.602979
H      3.844958   -3.488434    4.046999
H      2.243802   -1.104082   -2.346137
