60

C     -4.475346   -2.161073    0.437526
C     -5.288343    2.242905    0.576141
C     -3.297530   -2.934160   -0.069725
C     -2.037087   -2.049466   -0.166715
C     -1.747316   -1.541199    1.201697
C     -2.431253    1.811132    0.464216
C      5.363682    1.160046    0.627853
C      5.898527    1.263218    1.898168
C      0.581830   -0.673961   -2.401913
C      1.263292   -1.734222   -3.189435
C     -0.563446   -0.691302    1.387848
C     -1.086347    1.702672    1.169546
C     -3.151428    3.035231    0.976986
C      3.374194    0.220867    1.415822
C      4.108984    0.645439    0.354823
C      5.106983    0.817278    2.933897
C      3.855296    0.297962    2.716411
C      1.298968   -0.383695   -1.047560
C      2.656881   -1.467108   -3.565401
C      3.628312    0.564368   -0.994137
C      0.418685    0.679770   -0.437315
Cl     5.749250    0.934153    4.551069
Cl     2.885366   -0.255007    4.052028
N      2.545073    0.153314   -1.375092
N     -0.371671    0.495023    0.674634
O      3.589441   -1.972110   -2.910127
O      2.947908   -0.656687   -4.645056
O      4.579151    1.039002   -1.987071
O      0.449766    1.828720   -1.021711
O     -4.379876    3.265782    0.418965
H     -4.303691   -1.084269    0.393504
H     -4.735805   -2.522750    1.462141
H     -5.356815   -2.396108   -0.197248
H     -6.275061    2.531130    0.121264
H     -4.885507    1.353572   -0.001617
H     -5.464866    1.975053    1.623970
H     -3.510628   -3.328650   -1.081071
H     -3.051923   -3.811450    0.568528
H     -1.210375   -2.674199   -0.521878
H     -2.303744   -1.222192   -0.874993
H     -2.667814   -1.161525    1.720102
H     -1.530911   -2.487452    1.816708
H     -2.296531    1.838605   -0.621545
H     -3.073263    0.944140    0.714143
H      6.003602    1.519313   -0.196976
H      6.881739    1.676947    2.023781
H      0.596653    0.281076   -2.994708
H     -0.434510   -0.952017   -2.158865
H      1.246784   -2.662207   -2.572200
H      0.652784   -2.027397   -4.099119
H     -0.481000   -0.436226    2.490530
H      0.330768   -1.384790    1.213536
H     -0.464021    2.587069    0.957484
H     -1.280405    1.645790    2.236258
H     -2.478390    3.895567    0.770896
H     -3.259700    2.979702    2.085545
H      2.397540   -0.200263    1.317153
H      1.375312   -1.295860   -0.470353
H      3.888192   -0.330193   -4.828652
H      4.219640    1.112694   -2.942691
