59

C      7.780626   -1.388029    1.546011
C      6.109674    2.694220   -1.803547
C     -4.941318    1.774010    1.963804
C     -6.042243    2.380929    1.397211
C     -4.430488    0.669266    1.331976
C     -6.596070    1.882228    0.238330
C      3.733302   -1.009993    0.711824
C      5.073667   -1.149132    0.998992
C      1.114563    0.340751    0.924881
C      1.342351   -1.176419   -1.025455
C     -2.929476   -1.254903   -0.222719
C     -4.587737   -0.859716   -1.991583
C     -0.337420   -0.088733    0.892812
C     -0.157165   -1.168141   -1.248135
C     -2.167151   -0.059913   -0.684784
C     -6.098247   -0.846809   -2.269476
C      4.185357    0.876157   -0.669711
C      1.814972    0.110899   -0.398284
C     -4.389982   -1.052871   -0.497162
C      3.265191   -0.011022   -0.115244
C     -4.944626    0.136412    0.179698
C     -6.045417    0.751151   -0.378078
C      5.974706   -0.251173    0.433839
C      5.539555    0.761178   -0.398999
N     -0.755402   -0.128720   -0.471331
O      7.335044   -0.350872    0.693572
O      6.479107    1.619228   -0.928499
O     -6.606187    0.251935   -1.544663
H      8.844398   -1.229969    1.857042
H      7.651884   -2.390960    1.052738
H      7.194674   -1.448197    2.489803
H      7.008251    3.154451   -2.248437
H      5.381742    2.357523   -2.559423
H      5.597083    3.442318   -1.165023
H     -4.512041    2.178762    2.882555
H     -6.481378    3.268937    1.872851
H     -3.568440    0.172979    1.754257
H     -7.454451    2.344709   -0.214884
H      3.008885   -1.705658    1.146477
H      5.399758   -1.947010    1.652804
H      1.618342   -0.175258    1.752943
H      1.190245    1.443550    1.138767
H      1.887754   -1.375953   -1.954497
H      1.592093   -1.997987   -0.313336
H     -2.717943   -1.546277    0.820083
H     -2.612932   -2.143186   -0.842347
H     -4.091726   -1.624095   -2.597208
H     -4.267579    0.190513   -2.257896
H     -0.437567   -1.047592    1.441388
H     -0.925007    0.699270    1.405859
H     -0.541107   -2.167851   -1.022482
H     -0.363518   -0.978977   -2.324257
H     -2.591989    0.887105   -0.314325
H     -2.300092   -0.010593   -1.807471
H     -6.195388   -0.682724   -3.356890
H     -6.530792   -1.807273   -1.956297
H      3.856578    1.666891   -1.318953
H      1.641467    0.970312   -1.079831
H     -5.000390   -1.949680   -0.240332
