50

C      4.401872    1.881145   -1.714469
C     -5.638515    0.936749    1.892033
C     -6.521876   -0.080010    2.610805
C      0.238749    1.762567    0.703249
C     -1.551950    0.292637    1.698315
C      4.749292   -2.304718   -0.796071
C     -0.535047    0.423956    0.686217
C      4.103149   -1.202795   -1.577206
C     -0.282613   -0.352584   -0.313720
C     -0.840551   -1.659305   -0.574716
C      1.391924    0.021516   -2.523001
C      1.463962    1.311810   -1.053291
C      4.742916   -0.767179    1.763804
C     -4.110622   -0.430000    0.405848
C      2.558912    0.592267   -1.743474
F      4.211208    0.375178    1.226068
F      4.468040   -0.891746    3.119787
N      3.200705   -0.470598   -1.030458
N     -4.108848   -0.792186   -0.872728
N     -5.189859   -0.274204   -1.412516
N     -5.869201    0.407077   -0.492208
N     -5.203614    0.319361    0.658866
N      0.678675    0.106377   -1.292043
O     -5.799814   -1.236396    2.876218
O      4.499969   -0.988646   -2.909661
O     -1.612387   -2.302989    0.138678
O     -0.490041   -2.319033   -1.782980
O      1.085095   -0.362756   -3.650622
O      3.390567    1.407117   -2.511247
O      1.557093    1.540921    0.317354
S      4.155179   -2.242393    0.894991
S     -2.863777   -0.861886    1.615000
H      5.092488    2.542161   -2.308684
H      5.039104    1.114753   -1.241876
H      3.991108    2.487586   -0.860285
H     -6.242946    1.833548    1.679679
H     -4.764886    1.188282    2.538209
H     -7.333961   -0.381530    1.899750
H     -6.975591    0.349923    3.516354
H     -0.259777    2.357691   -0.086898
H      0.142167    2.248312    1.669140
H     -1.028981    0.209466    2.724547
H     -2.048669    1.339430    1.791858
H      4.501819   -3.289646   -1.249469
H      5.861233   -2.194958   -0.812780
H      1.059969    2.134584   -1.652218
H      5.852840   -0.726228    1.658321
H     -5.781714   -1.794467    2.061734
H      3.794574   -0.648388   -3.540061
H     -1.177368   -3.005894   -2.144141
