46

C      3.740135   -3.005978   -0.345617
C      3.143769   -2.105240   -1.382680
C     -2.693128    2.736329   -3.266120
C     -2.576361    3.458629   -2.098864
C     -2.182703    1.448060   -3.255915
C      4.205270    0.864923    1.421767
C      3.205049    1.701340    1.863332
C     -1.985527    2.946002   -0.966140
C     -1.593223    0.924964   -2.139124
C      3.877245   -0.118433    0.486431
C      1.892543    1.586831    1.401775
C     -2.780284   -2.335894    1.661169
C     -3.062099   -1.739375    0.300102
C     -1.331961   -0.550181    2.053487
C     -1.492453    1.665790   -0.997219
C      2.581750   -0.240544    0.023764
C      1.576873    0.616739    0.481610
C     -1.854172    0.096557    0.790385
C     -0.853005    1.127326    0.247420
N     -2.432594   -1.311851    2.621723
O      2.202303   -1.189343   -0.892676
O     -2.052060   -0.917386   -0.143704
O      0.328568    0.466618    0.007250
H      3.410616   -4.070040   -0.473600
H      4.833590   -3.018219   -0.463801
H      3.479194   -2.697285    0.682547
H      3.985665   -1.464789   -1.786104
H      2.740624   -2.731439   -2.209900
H     -3.165377    3.162926   -4.152194
H     -2.959879    4.478453   -2.047113
H     -2.274616    0.864547   -4.191872
H      5.211916    0.947469    1.771231
H      3.445432    2.465659    2.586274
H     -1.911094    3.561263   -0.044737
H     -1.210863   -0.087890   -2.186249
H      4.676579   -0.748208    0.150874
H      1.098691    2.236548    1.739819
H     -1.966186   -3.069940    1.555285
H     -3.696285   -2.898483    1.952241
H     -4.002095   -1.161382    0.379039
H     -3.234234   -2.547922   -0.421725
H     -0.901843    0.174870    2.765929
H     -0.555080   -1.308909    1.771307
H     -2.824112    0.547956    1.020454
H     -0.759147    1.941896    0.972916
H     -3.285430   -0.702964    2.757220
