45

C     -4.132885    0.724938   -1.739419
C     -4.086344   -0.163819   -0.532234
C     -2.714137    1.200849   -1.909215
C      0.011224   -1.803698    0.225181
C      4.485894    1.089030   -1.300456
C      0.851587   -3.792288    1.506878
C      2.157928   -2.850164    2.986074
C      0.828760   -2.415233    1.300964
C      3.905806    0.340024   -0.164573
C      0.212668   -0.280213    0.243087
C     -2.910548    0.366963    0.253196
C      4.339171    2.214435   -0.414445
C     -3.237104    1.586013    1.008253
C      2.566326   -0.297859   -0.472350
C     -0.588806    0.366870   -0.814836
N     -4.398307    2.059632    1.116834
N      1.675523   -4.022795    2.546374
N      1.630927   -1.880749    2.215055
N      3.859590    1.551993    0.504955
N      1.594254    0.037108    0.184139
N     -1.961521    0.602546   -0.801135
O      4.642383    3.584721   -0.562448
O     -2.191827    2.257268    1.645677
O      2.557127   -1.216646   -1.483123
O      0.075739    0.743221   -1.843119
H     -4.474841    0.134740   -2.629946
H     -4.790548    1.604551   -1.584136
H     -3.849336   -1.213621   -0.847719
H     -5.038260   -0.173870    0.035949
H     -2.342698    0.821307   -2.886419
H     -2.616779    2.306205   -1.866977
H      0.254504   -2.244684   -0.746202
H     -1.046658   -1.995086    0.449489
H      5.527826    0.769926   -1.553976
H      3.799277    1.058735   -2.186487
H      0.314406   -4.548686    0.946317
H      2.835401   -2.721830    3.799696
H      4.579400   -0.460943    0.269719
H     -0.185912    0.055382    1.221970
H     -2.566129   -0.386868    1.007940
H     -5.252820    1.683153    0.713662
H      1.838147   -0.886437    2.342724
H      4.301278    4.229316    0.123660
H     -2.298495    3.255373    1.881797
H      1.838812   -1.288811   -2.190376
