45

C     -3.554500   -2.323565    0.556166
C     -2.120235   -2.926827   -1.187523
C     -2.005318    3.927342    1.560502
C     -0.759269    3.550159    2.007736
C     -2.539486    3.208731    0.513903
C      4.624837   -1.644372   -0.525654
C      3.793619   -2.427531    0.284445
C      4.211011   -0.390817   -0.914534
C     -0.078493    2.483798    1.416896
C     -1.852621    2.138943   -0.076587
C      2.570800   -1.975504    0.702615
C      2.473359    1.399632   -0.852476
C      1.037127    1.279379   -1.269520
C     -0.872614   -0.272658   -0.944002
C     -1.772299   -0.901130    0.055834
C      2.979239    0.055899   -0.488913
C     -0.627518    1.784910    0.379892
C      2.160483   -0.717977    0.309438
C      0.848098   -0.167121    0.719540
C      0.121018    0.672015   -0.252135
N     -2.753282   -1.789509   -0.548768
O      0.462989   -0.465129    1.873269
H     -2.836302   -2.949514    1.158000
H     -4.328391   -3.013694    0.194392
H     -3.913724   -1.517562    1.201878
H     -2.919326   -3.671237   -1.382495
H     -1.344550   -3.302899   -0.498577
H     -1.692296   -2.612507   -2.147776
H     -2.573601    4.749676    1.988059
H     -0.327939    4.102839    2.825858
H     -3.527810    3.501157    0.152670
H      5.587514   -2.071151   -0.820947
H      4.117512   -3.423841    0.596406
H      4.874382    0.185074   -1.537248
H      0.884771    2.221416    1.793393
H     -2.383921    1.674086   -0.886189
H      1.895894   -2.565326    1.343489
H      2.503582    2.084049    0.041449
H      3.035224    1.840245   -1.703734
H      0.666602    2.257808   -1.639200
H      1.024601    0.608540   -2.171121
H     -0.216875   -1.075581   -1.373646
H     -1.370790    0.187678   -1.802241
H     -2.327907   -0.139230    0.618921
H     -1.173599   -1.568691    0.728536
