46

C      4.401428   -0.268513    2.250466
C      4.249973   -0.236498    0.756869
C     -2.515341    3.853734    1.158811
C     -1.580951    3.065896    1.797087
C     -2.967287    3.444483   -0.075860
C      3.348070   -0.106512   -3.304063
C      2.051654    0.012530   -3.739987
C     -1.112939    1.908018    1.222519
C     -2.485619    2.265098   -0.652809
C      3.617315   -0.147092   -1.950519
C      1.017328    0.091212   -2.789739
C     -3.115720   -2.836495    1.394767
C     -3.535023   -2.266041    0.068770
C     -1.271555   -1.299479    1.376593
C     -1.552568    1.487906   -0.004296
C      2.630741   -0.072573   -1.001874
C      1.312933    0.048466   -1.447513
C     -1.698522   -0.994161   -0.040883
C     -1.030321    0.242931   -0.588320
N     -1.707889   -2.659254    1.661976
O      2.900714   -0.113263    0.355593
O     -3.068615   -0.960768   -0.116554
O      0.356640    0.119969   -0.470146
H      3.570153   -0.913388    2.650996
H      4.420977    0.718918    2.717965
H      5.341488   -0.801177    2.485757
H      4.742474   -1.126095    0.336580
H      4.784514    0.674536    0.379992
H     -2.904422    4.768769    1.580743
H     -1.232031    3.408154    2.781113
H     -3.701721    4.052482   -0.590720
H      4.130297   -0.165711   -4.047525
H      1.773688    0.049873   -4.774929
H     -0.385476    1.307251    1.734231
H     -2.866604    1.978779   -1.624874
H      4.664300   -0.242232   -1.678773
H     -0.003768    0.184910   -3.127761
H     -3.751679   -2.445017    2.204063
H     -3.296493   -3.939992    1.353583
H     -3.155149   -2.954029   -0.717795
H     -4.640603   -2.315678    0.022318
H     -1.774033   -0.651328    2.120088
H     -0.190164   -1.236670    1.506359
H     -1.346752   -1.853441   -0.652423
H     -1.291902    0.279258   -1.663702
H     -1.131545   -3.357766    1.143822
