48

C      3.034080   -2.669728   -2.674130
C      3.106065    3.223463    1.524205
C      5.789378   -0.502966    0.620526
C     -2.818214   -1.364450    2.091321
C     -1.868024   -2.224688    1.289689
C     -0.508926    0.606577   -0.715396
C      1.619095   -0.577562   -1.336678
C      1.697266    1.341565    0.036417
C     -4.849449   -0.331484    1.071014
C     -3.214021    1.018178   -0.740192
C      0.957071    0.435873   -0.686242
C     -3.494748   -0.492834    1.119663
C     -2.699913    0.181024    0.218026
C     -1.228064   -0.085620    0.389436
C     -5.388087    0.521881    0.096083
C     -4.583294    1.188533   -0.798306
C      2.998836   -0.661821   -1.249991
C      3.070701    1.253623    0.119763
C      3.747103    0.242061   -0.527709
N     -0.909412   -1.452976    0.586819
O     -6.773784    0.693581    0.038297
O     -5.156060    2.035110   -1.761497
O      3.680934   -1.676277   -1.898918
O      3.775111    2.177902    0.851824
O      5.125038    0.203452   -0.408743
H      3.721465   -3.534712   -2.805290
H      2.161989   -3.073216   -2.087294
H      2.733416   -2.318770   -3.662113
H      3.834596    3.890670    1.997370
H      2.430215    2.817567    2.325967
H      2.453904    3.787760    0.804195
H      5.441581   -1.556503    0.624278
H      5.638973   -0.054518    1.612130
H      6.875638   -0.509057    0.394298
H     -2.182763   -0.688325    2.732877
H     -3.511886   -1.962388    2.704456
H     -1.391109   -3.010054    1.910970
H     -2.514203   -2.731953    0.512825
H     -0.868639    0.203389   -1.689647
H     -0.716715    1.701676   -0.617334
H      1.052320   -1.286684   -1.903334
H      1.198994    2.159380    0.565044
H     -5.533349   -0.831796    1.750822
H     -2.563519    1.523470   -1.424396
H     -0.970053    0.473067    1.338129
H     -0.638843   -1.884552   -0.327106
H     -7.216292    1.287899   -0.633389
H     -4.544402    2.515231   -2.409100
