42

C     -2.893194    1.592202    0.696729
C      1.154680   -2.319023    0.770323
C      0.135587   -2.237814   -1.414071
C      2.878911    1.552403   -0.091757
C     -2.640182   -0.141330   -1.013265
C     -2.045242   -1.217944   -0.165230
C      1.165629    1.006237    1.545344
C     -0.069973    1.636219    0.987214
C      0.273801    0.692708   -1.223982
C     -2.061634    1.141851   -0.456733
C     -0.735644   -0.709755    0.379271
C      1.329925   -0.244130   -0.630915
C      0.461427   -1.395036   -0.174529
C      2.038753    0.417217    0.501476
C     -0.696795    0.733644   -0.035063
O      2.954773   -0.496137    1.027334
H     -2.858476    0.825009    1.497910
H     -3.944038    1.722548    0.336688
H     -2.558326    2.571817    1.073875
H      1.263021   -1.967156    1.787739
H      2.115249   -2.631035    0.283479
H      0.539026   -3.262290    0.815749
H     -0.541213   -1.740003   -2.097002
H      1.128044   -2.473120   -1.885397
H     -0.232479   -3.225352   -1.035077
H      3.343388    1.260568   -1.048262
H      3.657979    1.827093    0.676159
H      2.275408    2.465252   -0.244772
H     -3.749054   -0.088132   -0.956444
H     -2.368613   -0.184523   -2.074790
H     -1.951053   -2.181440   -0.689921
H     -2.771803   -1.405193    0.677393
H      0.871059    0.330071    2.358828
H      1.750764    1.834766    2.043132
H     -0.742204    1.966969    1.779660
H      0.264829    2.559144    0.427927
H      0.675765    1.689306   -1.440119
H     -0.188721    0.268909   -2.113372
H     -2.075322    1.909427   -1.253683
H     -0.765601   -0.773257    1.493423
H      2.044530   -0.591106   -1.370332
H      3.567018   -0.719586    0.255064
