48

C      4.864380   -0.489744   -1.006245
C      4.904956    1.760085   -0.065218
C     -1.701923   -2.015993    0.037298
C     -3.265362    0.677390    1.485011
C     -2.135371   -0.298383    1.719074
C     -0.995684    0.372200   -1.850085
C     -4.098163   -0.097992   -1.983862
C      4.380192    0.365899    0.144923
C     -4.000698    0.354218    0.221069
C     -3.248982    0.209726   -0.850136
C     -1.776148    0.399220   -0.596891
C      0.322354   -0.325223   -1.774346
C      2.099445    0.980269    1.107450
C      0.733277    0.486817    1.431356
C     -5.394512    0.153436   -0.125432
C      2.281243   -0.943743   -0.334617
C     -1.371816   -0.593204    0.439489
C      2.890006    0.313332    0.181808
C      0.802370   -0.866737   -0.617289
C      0.119292   -0.492655    0.644486
O     -6.378193    0.219224    0.662732
O      2.876146   -1.967786   -0.529156
O     -5.403403   -0.118744   -1.475942
O      0.252715   -1.729505   -1.531987
O      2.275314    1.533601   -0.231937
O      0.611817   -0.858258    1.882236
H      5.162060   -1.512110   -0.681606
H      4.139967   -0.507193   -1.842924
H      5.810014   -0.035683   -1.412579
H      6.016497    1.667399   -0.184260
H      4.522610    2.165112   -1.008696
H      4.696247    2.388782    0.808597
H     -2.579136   -2.414965    0.625941
H     -1.997516   -2.100938   -1.019586
H     -0.854328   -2.696707    0.285377
H     -4.000836    0.590120    2.312308
H     -2.922438    1.732419    1.467295
H     -1.501576    0.104418    2.516744
H     -2.611972   -1.226746    2.136086
H     -0.815791    1.402180   -2.240371
H     -1.587849   -0.135571   -2.665947
H     -3.982486    0.595243   -2.845304
H     -3.916936   -1.149324   -2.365872
H      4.818039   -0.072287    1.067031
H     -1.690723    1.418622   -0.131076
H      0.985468   -0.109243   -2.663489
H      2.562100    1.624860    1.910591
H      0.105331    1.244159    1.987003
