50

C      1.587098    1.817281   -0.195490
C     -3.137945    1.371895   -0.287124
C     -2.936270   -0.795543    1.610564
C     -4.249192   -1.107708    0.918670
C      3.708653    0.118992   -1.597600
C     -0.640483    0.420808   -1.743807
C      2.224580   -0.032646   -1.663197
C     -2.028237   -0.112900   -1.873348
C      3.411886   -1.005793    0.611703
C      1.349683   -0.603113    1.806688
C      2.055567   -0.438139    0.721817
C      4.316128   -0.211923   -0.268103
C     -1.977347   -0.709907    0.513313
C      0.062483   -0.125727   -0.552834
C     -0.038938   -0.044674    1.970026
C     -4.004252   -0.868429   -0.542754
C     -0.763897    0.132774    0.696142
C      1.487723    0.327298   -0.412836
C     -2.786574   -0.053700   -0.602333
O      4.714167    0.961546    0.407455
O     -0.673557   -0.829484    2.912341
O     -4.640525   -1.242670   -1.502673
H      0.609165    2.310621   -0.112587
H      2.123177    1.970480    0.776855
H      2.228750    2.291206   -0.964493
H     -4.137837    1.571484   -0.743322
H     -2.441821    2.098985   -0.783253
H     -3.227056    1.586460    0.784841
H     -2.776197   -1.654649    2.327441
H     -3.016081    0.099521    2.259174
H     -5.089456   -0.508189    1.305488
H     -4.508158   -2.199073    0.992140
H      4.049527    1.113284   -1.981305
H      4.141390   -0.611328   -2.344298
H     -0.582539    1.526878   -1.808234
H     -0.090749    0.054188   -2.661573
H      1.996507   -1.107530   -1.877955
H      1.865277    0.529683   -2.553444
H     -2.564555    0.543524   -2.618922
H     -2.012271   -1.121798   -2.341431
H      3.854324   -1.045123    1.637879
H      3.379589   -2.083441    0.282411
H      1.807341   -1.176340    2.621830
H      5.268364   -0.793690   -0.400393
H     -1.685590   -1.698353    0.153218
H      0.103093   -1.248009   -0.678676
H      0.126077    0.957425    2.466790
H     -1.101270    1.207418    0.597089
H      5.505435    0.779239    0.974599
H     -0.865188   -0.361111    3.763512
