81

C      6.235012    2.023264    0.869989
C      7.899929    0.908315   -0.536610
C      6.344307   -1.439455    1.386299
C      3.332939   -0.358908    1.470919
C     -6.787050   -1.160693   -0.932751
C     -3.680401   -0.823132    2.161983
C      0.204029   -1.667380    0.422847
C     -0.309999    1.622981   -1.425770
C      5.429611   -0.776757   -0.788537
C      4.118283   -0.176643   -0.887238
C     -3.800906   -1.612970   -0.779404
C     -2.693436   -1.017725   -1.638790
C      1.624736   -0.375643   -1.923211
C     -1.387037    1.090823    1.269448
C     -5.719305    1.304220    1.722499
C     -4.258642    1.409019    1.399497
C      0.120987   -0.643880   -2.133392
C      0.047067    0.643740    1.286737
C      6.949291    0.755760    0.656379
C      6.198093   -0.489826    0.434966
C      3.011082   -0.606956    0.049880
C     -5.917954   -0.683255    0.208463
C      1.772629    0.059214   -0.479754
C     -4.512164   -0.432369   -0.181288
C     -2.302372    0.295161    0.450098
C     -1.865657   -0.194977   -0.715405
C     -6.524580    0.639795    0.661773
C     -3.702656    0.071032    0.959437
C      0.476425   -0.208067    0.127457
C     -0.450526    0.162737   -1.025949
O     -7.831955    0.510257    1.061214
H      7.062503    2.795987    1.097332
H      5.611112    2.097047    1.781961
H      5.749921    2.482108   -0.017197
H      8.306207   -0.110618   -0.736652
H      7.295274    1.288687   -1.373734
H      8.690192    1.624200   -0.208129
H      6.902396   -1.225869    2.271053
H      5.880617   -2.389239    1.203617
H      4.151788    0.312463    1.682945
H      2.395866   -0.062487    2.041850
H      3.589316   -1.331027    2.006619
H     -7.409467   -0.324671   -1.367384
H     -6.247791   -1.593147   -1.771346
H     -7.547659   -1.909146   -0.579467
H     -4.691854   -1.043426    2.500080
H     -3.205366   -0.221087    2.992160
H     -3.029378   -1.711568    2.033744
H     -0.909051   -1.808285    0.302691
H      0.727512   -2.345244   -0.265981
H      0.413952   -1.864099    1.492915
H     -1.359583    2.040410   -1.433351
H      0.265262    2.231053   -0.732528
H      0.024818    1.740211   -2.480418
H      5.471851   -1.870226   -1.050662
H      6.067829   -0.330856   -1.631608
H      3.692205   -0.231665   -1.936180
H      4.160898    0.959064   -0.732898
H     -4.419330   -2.339049   -1.291843
H     -3.268278   -2.166999    0.046552
H     -2.122228   -1.777473   -2.170697
H     -3.214571   -0.295905   -2.330319
H      1.951734    0.413132   -2.621075
H      2.165815   -1.323242   -2.157342
H     -1.800594    1.122205    2.319101
H     -1.410165    2.164796    0.956370
H     -6.099712    2.365199    1.803297
H     -5.881854    0.875485    2.741387
H     -3.746896    1.656269    2.374583
H     -4.008039    2.226722    0.709559
H     -0.073744   -1.732981   -2.037359
H     -0.125181   -0.287863   -3.135636
H      0.100072    0.000061    2.211382
H      0.747210    1.483208    1.459030
H      7.664793    0.640008    1.533105
H      2.945121   -1.735073   -0.080391
H     -6.013708   -1.454416    1.008719
H      1.959703    1.157272   -0.462645
H     -4.526920    0.394087   -0.950502
H     -6.505920    1.297522   -0.239984
H     -8.396459    1.290782    0.758532
