72

C     -4.810587   -2.087402   -0.944308
C      6.113138   -0.986572    1.565284
C     -4.365346   -2.131491    0.498739
C      5.412102   -0.274604    2.675251
C     -4.296898    4.376539   -1.625150
C      2.254857   -1.435624   -1.629800
C     -1.717250    1.423273   -0.558381
C      1.478591    1.251373    2.167018
C     -5.468435   -3.346465   -1.414514
C      7.325412   -0.287837    1.059890
C     -3.016526    1.396496    0.259407
C      2.672740    0.473605    1.627326
C     -3.719697   -0.842022    0.879080
C      4.962138    1.058999    2.261473
C     -4.535499    5.432898   -0.624057
C      3.016242   -2.632397   -2.010330
C     -3.916707    2.498692   -0.180834
C      2.473659    0.146942    0.183868
C     -6.678392   -3.730463   -0.687149
C      7.896538   -1.175064   -0.019610
N     -5.777107   -3.184522   -2.823961
N      7.034404    0.972139    0.420921
N     -3.535006    3.281580   -1.108214
N      2.443755   -1.063617   -0.248630
N     -3.601242    0.117003    0.054005
N      3.809947    1.324355    1.830758
O     -3.244200   -0.704157    2.165305
O      5.841575    2.175268    2.325878
O     -4.080886    5.288278    0.533831
O     -5.248443    6.576949   -0.934749
O      2.946793   -3.068973   -3.176863
O      3.812246   -3.286922   -1.094723
O     -5.157204    2.693374    0.392553
O      2.314020    1.171633   -0.733654
O     -6.691020   -3.957868    0.553646
O     -7.880906   -3.855912   -1.378820
O      8.256799   -2.346216    0.222594
O      8.017834   -0.675949   -1.286603
S     -0.688410    0.055100    0.047591
S     -0.071457    0.366346    2.048290
H     -5.459194   -1.204725   -1.128885
H     -3.898752   -1.942019   -1.555493
H      5.348983   -1.108206    0.741713
H      6.346990   -2.041021    1.895270
H     -3.654558   -2.983199    0.617046
H     -5.216516   -2.281646    1.190668
H      4.509871   -0.873052    2.998123
H      6.075032   -0.219491    3.587077
H     -3.812339    4.813851   -2.516404
H     -5.295571    3.967525   -1.955555
H      2.429720   -0.581061   -2.338342
H      1.170544   -1.687100   -1.752808
H     -1.180769    2.361653   -0.308020
H     -1.909959    1.297149   -1.622151
H      1.717098    1.540702    3.198103
H      1.410706    2.176256    1.536303
H     -4.738155   -4.195914   -1.311689
H      8.081638   -0.163237    1.851129
H     -2.730853    1.565907    1.312827
H      2.756745   -0.495085    2.154451
H     -5.474954   -4.012509   -3.385253
H     -6.807591   -3.053816   -2.962699
H      6.260652    0.930184   -0.246467
H      7.868217    1.497552    0.141147
H     -3.255452    0.169914    2.668296
H      5.499993    3.079274    2.583527
H     -5.593385    7.207166   -0.223629
H      4.676794   -3.777955   -1.374025
H     -5.926674    2.998005   -0.183839
H      1.655723    1.100141   -1.498583
H     -8.783850   -3.862820   -0.929454
H      8.348290   -1.229181   -2.087274
