72

C      6.240307   -0.010037    0.158563
C     -6.131133    0.794560    1.247076
C      5.292347    0.336033    1.250670
C     -4.775790    0.288220    1.670991
C      3.865384   -0.118054   -2.970847
C     -3.020131    3.273982   -1.227291
C      1.962896   -2.413111   -0.055619
C     -1.441320    0.014268    0.687647
C      7.671473    0.386201    0.481518
C     -7.232066   -0.130403    1.636990
C      2.274955   -1.031523   -0.527704
C     -2.552440   -0.311720   -0.303920
C      3.927855   -0.079129    0.915639
C     -4.390446   -1.000460    1.109682
C      4.750256   -1.298327   -2.836118
C     -2.934445    3.240093   -2.725828
C      1.836162   -0.790590   -1.913768
C     -3.114566    0.893087   -0.926736
C      8.179357   -0.278125    1.695733
C     -8.527500    0.495432    1.169632
N      7.751527    1.813137    0.537703
N     -7.254759   -0.384975    3.046264
N      2.484482   -0.415809   -2.920673
N     -2.560364    2.033098   -0.677836
N      3.619941   -0.622230   -0.204733
N     -3.470337   -1.196830    0.301881
O      2.906104    0.128291    1.867689
O     -5.129894   -2.139334    1.519442
O      4.240788   -2.428261   -2.694318
O      6.109216   -1.158443   -2.866723
O     -3.289581    4.231371   -3.403311
O     -2.455531    2.092639   -3.344154
O      0.441714   -1.005996   -2.215508
O     -4.203043    0.896948   -1.769976
O      8.161479   -1.532969    1.771436
O      8.692587    0.410790    2.796512
O     -8.707529    0.793596   -0.025935
O     -9.496033    0.718823    2.129163
S      0.187285   -2.728337   -0.080467
S     -0.858026   -1.562947    1.352894
H      5.976376    0.580774   -0.755844
H      6.240980   -1.076849   -0.122096
H     -6.336074    1.801080    1.713375
H     -6.168918    0.927214    0.138518
H      5.634330   -0.074231    2.237218
H      5.352272    1.457014    1.418946
H     -4.056035    1.100301    1.416885
H     -4.718807    0.268057    2.812831
H      4.137316    0.465348   -3.902341
H      4.105979    0.578941   -2.136695
H     -4.030444    3.473737   -0.872050
H     -2.325734    4.076297   -0.875623
H      2.406070   -3.134080   -0.801729
H      2.426207   -2.662426    0.918292
H     -1.716753    0.730197    1.455241
H     -0.608018    0.417612    0.038102
H      8.288499    0.030300   -0.382755
H     -7.090085   -1.096871    1.065389
H      1.626326   -0.328355    0.091864
H     -2.004244   -0.938722   -1.093113
H      7.252298    2.195679    1.347642
H      7.284933    2.182836   -0.332200
H     -7.591743   -1.355451    3.274905
H     -7.898025    0.322144    3.510591
H      2.180967   -0.560153    2.019710
H     -5.119219   -2.952996    0.922060
H      6.675248   -1.987612   -3.090588
H     -2.796043    1.890208   -4.277480
H      0.010847   -0.510365   -2.984286
H     -4.855373    1.693473   -1.823120
H      9.123321   -0.090445    3.578522
H    -10.457636    0.878951    1.834167
