44

C     -3.628404    2.940863   -1.409685
C     -2.067849   -2.677751    1.026469
C      1.082560   -1.666317   -1.457039
C     -1.370171   -1.491413    1.656806
C     -2.300880   -2.299978   -0.440496
C      0.009607   -2.300001   -0.599497
C      3.078077   -0.551122   -0.927093
C      1.944257    1.225403    0.768738
C     -2.515475    0.200381    0.401524
C      5.449239    1.929357    0.214404
C      1.721379   -0.590245   -0.692058
C      1.112182    0.288253    0.156081
C      3.887051    0.384589   -0.311086
C      3.290924    1.280086    0.548593
C     -2.316693    1.443342    0.039138
C     -0.250324    0.519323    0.615327
C     -0.876362    1.638309   -0.180625
C     -1.222286   -0.571523    0.464000
N     -1.147687   -1.409929   -0.671721
O     -0.511255    1.444830   -1.515096
O     -3.261009    2.472119   -0.132611
O      5.260105    0.655746   -0.357043
O      4.326558    2.103202    1.026617
H     -4.068121    2.146930   -2.047382
H     -4.429950    3.692776   -1.256387
H     -2.779192    3.466177   -1.880026
H     -3.084637   -2.818419    1.470412
H     -1.510269   -3.615391    1.120347
H      1.796771   -2.479454   -1.731398
H      0.620465   -1.320333   -2.403778
H     -0.437178   -1.733213    2.154974
H     -2.053350   -1.056034    2.427482
H     -2.219359   -3.218167   -1.063628
H     -3.251861   -1.799053   -0.600746
H     -0.220519   -3.282576   -1.051540
H      0.419271   -2.377967    0.420645
H      3.516379   -1.273859   -1.612471
H      1.532549    1.968615    1.465851
H     -3.512742   -0.187959    0.622151
H      5.450572    2.697016   -0.586722
H      6.401655    1.939095    0.791554
H     -0.215717    0.847905    1.673967
H     -0.524378    2.636394    0.155662
H     -1.123935    0.799993   -1.953129
