34

C     -1.704633    0.941379   -0.437117
C     -3.611110   -0.126555    0.711051
C      3.758660   -1.254999   -0.676753
C      0.772932    1.747742    0.739541
C     -2.841408   -0.046462   -0.601584
C     -0.460436    0.130790   -0.689823
C      2.818261    0.902550    0.623613
C     -2.205609   -1.404168   -0.818285
C     -0.878423   -1.222690   -0.109891
C      4.147588    0.577553    0.706421
C      1.923472    0.132672   -0.129097
N      5.058869    1.345689    1.461758
N      4.591242   -0.498111    0.052200
N      2.459667   -0.925485   -0.749259
N      2.055012    1.888625    1.139692
N      0.698810    0.665360   -0.040921
O     -4.139275    1.122773    1.066876
O     -1.995411   -1.626966   -2.169063
O      0.030534   -2.216030   -0.441479
H     -1.776859    1.782255   -1.139780
H     -1.656297    1.297430    0.633208
H     -2.942158   -0.529889    1.487932
H     -4.474453   -0.810161    0.622645
H      4.090348   -2.136000   -1.219982
H     -0.007667    2.428753    1.036463
H     -3.484217    0.268221   -1.433500
H     -0.340990   -0.023517   -1.776485
H     -2.808317   -2.219640   -0.370751
H     -1.072788   -1.162335    0.973808
H      5.100624    1.240607    2.497265
H      5.723451    2.042139    1.040451
H     -4.841944    1.312038    0.387167
H     -2.206384   -0.840613   -2.737737
H      0.218907   -2.782958    0.361416
