44

C      3.009123   -3.459749    1.220992
C      2.552605    2.654223   -0.920688
C     -1.222448    2.157115    0.539872
C      1.754713    1.524309   -1.527855
C      1.796106    2.928293    0.354904
C     -0.024313    1.782509    1.424459
C     -3.075710    0.837106    0.068221
C     -1.649314   -1.288198   -0.964799
C      2.639245    0.012611    0.091622
C     -5.171704   -1.987696   -0.541385
C     -1.700630    0.863379   -0.006282
C     -0.956748   -0.169673   -0.511610
C     -3.736408   -0.277470   -0.385232
C     -3.025152   -1.346613   -0.904490
C      2.417562   -1.256294    0.297424
C      0.468992   -0.317209   -0.667936
C      0.980248   -1.534277    0.105326
C      1.393612    0.717442   -0.256475
N      1.098495    1.738155    0.618038
O      0.396752   -1.634350    1.366996
O      3.403333   -2.229267    0.652529
O     -5.095038   -0.566439   -0.428381
O     -3.992702   -2.279777   -1.258143
H      3.942877   -4.030435    1.403392
H      2.458972   -3.256630    2.143854
H      2.401603   -4.026386    0.470530
H      3.607302    2.334339   -0.682039
H      2.559592    3.537418   -1.596321
H     -0.852734    2.748235   -0.332832
H     -1.994060    2.692435    1.108534
H      0.841265    1.967845   -1.973536
H      2.336819    0.904962   -2.212553
H      2.459392    3.265928    1.176595
H      1.043587    3.735206    0.115394
H     -0.306286    0.926264    2.026255
H      0.069630    2.648233    2.136287
H     -3.620009    1.698112    0.484604
H     -1.130524   -2.150408   -1.380136
H      3.638269    0.495609    0.170058
H     -5.085789   -2.478046    0.460081
H     -6.086107   -2.280339   -1.079699
H      0.648335   -0.602119   -1.751949
H      0.837436   -2.463180   -0.487154
H     -0.030189   -2.535174    1.433529
