50

C     -2.667706    2.444353   -0.829847
C     -3.087002    3.523292   -0.100294
C     -1.005819    1.923872    0.845887
C      3.648042    0.613665    0.551950
C      4.467730   -0.858552   -1.082411
C     -3.836842   -3.814793   -0.370878
C     -4.021452   -1.886070   -1.801748
C     -1.076532   -1.367306    0.421555
C     -1.619362    1.639306   -0.352428
C      3.382158   -0.295050   -0.448861
C     -4.467638   -3.119708   -1.380285
C     -2.282586   -2.020541   -0.192720
C     -2.488796    3.829164    1.102724
C     -2.713041   -3.250514    0.240932
C     -1.453744    3.018530    1.554835
C      4.950107    0.944523    0.903865
C      5.762550   -0.560778   -0.766960
C     -2.899932   -1.315303   -1.196366
C     -0.393702   -0.534762   -0.674416
C      6.001592    0.351488    0.238050
C     -1.259294    0.521229   -1.215097
C      2.059002   -0.670685   -0.849995
O     -5.589616   -3.636107   -2.022179
O     -2.882108    4.922230    1.885604
O     -2.090755   -3.957427    1.253543
O     -0.826573    3.289559    2.755719
O      5.214538    1.860070    1.912229
O      6.824665   -1.175609   -1.456955
O      7.340422    0.626303    0.527688
O      1.892991   -1.506723   -1.771598
O     -2.484547   -0.079996   -1.644350
O      0.887698   -0.178550   -0.294329
H     -3.163445    2.242330   -1.764231
H     -3.891633    4.156997   -0.447510
H     -0.207722    1.270384    1.157826
H      2.823967    1.091526    1.088219
H      4.333241   -1.593856   -1.893070
H     -4.234523   -4.770416   -0.089806
H     -4.518496   -1.339890   -2.595868
H     -0.355748   -2.169274    0.683009
H     -1.439022   -0.776185    1.256442
H     -0.267945   -1.291578   -1.511417
H     -0.790164    0.875074   -2.182413
H     -5.952138   -4.538143   -1.745739
H     -3.636305    5.482683    1.519408
H     -1.292798   -3.564438    1.707760
H     -1.138430    4.085586    3.290526
H      6.120410    2.138904    2.210807
H      6.666150   -1.840047   -2.189090
H      7.660153    1.261233    1.225570
