51

C      6.961243    2.043923    1.631721
C     -6.577806    1.726511   -1.202667
C      5.235158   -1.679360   -2.189778
C     -3.597175   -1.621608    1.167768
C      2.907049    0.820688    1.431628
C     -4.855678   -2.177125    1.133929
C      4.236774    1.221832    1.497158
C      1.060562   -0.484507    0.467898
C     -2.033022    0.194363    0.670744
C     -4.420144    0.287947    0.029742
C      3.432426   -0.589505   -0.372698
C      0.634181    0.363919   -1.857237
C      2.474430   -0.098295    0.490396
C     -3.376533   -0.384889    0.614142
C      0.207924    0.376763   -0.417530
C     -1.173102   -0.233738   -0.491035
C     -5.903273   -1.479811    0.536175
C      5.165773    0.709825    0.618608
C     -5.692723   -0.237030   -0.022708
C      4.763200   -0.205493   -0.327449
C     -1.648832    0.153561   -1.808178
O     -7.147522   -2.058033    0.516777
O     -2.794002    0.049192   -2.303834
O      6.491228    1.115614    0.690906
O     -6.764557    0.452479   -0.622544
O      5.699748   -0.736960   -1.230950
O     -0.585578    0.706596   -2.527956
H      8.047300    2.197927    1.435002
H      6.406031    2.987409    1.518625
H      6.899338    1.655468    2.680944
H     -6.412298    2.517637   -0.462563
H     -5.673542    1.701353   -1.875225
H     -7.424269    1.986649   -1.837431
H      4.380188   -1.266441   -2.763899
H      6.048154   -1.930842   -2.901548
H      4.971258   -2.596647   -1.646382
H     -2.762220   -2.160565    1.635923
H      2.196087    1.230235    2.124618
H     -5.024379   -3.159948    1.575529
H      4.577829    1.942888    2.235213
H      0.650256   -0.414475    1.492928
H      0.998881   -1.523848    0.090956
H     -2.037736    1.286470    0.797439
H     -1.523495   -0.208257    1.589424
H     -4.309486    1.276138   -0.419790
H      3.119609   -1.307512   -1.115849
H      1.432790    1.091173   -2.082206
H      0.881252   -0.663661   -2.200535
H      0.177602    1.434992   -0.093270
H     -1.001964   -1.351518   -0.442662
H     -7.316933   -2.961483    0.919059
