24

C     -2.468811    0.246391    0.450632
C     -1.093604    0.053368   -0.183167
C     -0.206355    1.158424    0.271316
C      1.242755    0.882791    0.220647
C      1.641138   -0.508375   -0.090827
C      0.559346   -1.372138   -0.652304
O     -3.367746   -0.728787    0.001639
O     -0.549625    2.307402   -0.466133
O      1.883859    1.253663    1.425889
O      2.712853   -0.535131   -1.003924
O      0.993364   -2.687821   -0.655198
O     -0.588392   -1.199435    0.150544
H     -2.423507    0.206769    1.556517
H     -2.839343    1.254651    0.157601
H     -1.245629    0.088686   -1.277100
H     -0.478639    1.383841    1.343351
H      1.708557    1.558488   -0.554091
H      2.029783   -1.031106    0.829747
H      0.324052   -1.072880   -1.713395
H     -2.920696   -1.539139   -0.316727
H     -0.438020    3.101692    0.138928
H      1.282630    1.094504    2.206859
H      3.565765   -0.692467   -0.559243
H      0.676266   -3.223392    0.097276
