81

C      4.172753   -3.445248    0.993703
C      4.736385   -2.535444   -1.158146
C     -5.177524    1.670821   -1.111745
C     -5.257426    0.686918    1.106316
C     -3.004172   -1.414610    1.258636
C      1.048942    0.382510   -1.519444
C     -0.499976    1.255756    1.867020
C      1.185165   -1.559571    0.664877
C     -0.278296   -1.532671    0.970920
C      5.542006   -0.259873    0.510864
C     -2.652873    1.809248    0.274641
C     -4.326692   -1.916459   -1.075596
C     -2.855268   -1.662297   -1.086462
C     -1.229915    1.919306   -0.303496
C      5.143881    0.980643   -0.308699
C      1.552607    2.191475   -0.003719
C      2.992713    2.271096   -0.386345
C      4.364822   -2.368283    0.269745
C      4.229657   -0.998035    0.805113
C      1.819345   -0.192434    0.708679
C     -3.200212    0.551299   -0.332591
C     -1.014347   -0.499795    0.110613
C     -5.213668   -0.748220   -0.959603
C      3.190907   -0.171269    0.110892
C      3.950479    1.630520    1.706150
C     -4.696520    0.463970   -0.272854
C     -2.473604   -0.690165    0.062601
C      0.990271    0.802318   -0.065283
C     -0.454823    0.836526    0.445920
C      3.760154    1.211116    0.317448
O     -6.367498   -1.158287   -0.243357
O      3.643961    1.049976    2.760045
O      4.576511    2.879960    1.932415
H      3.902249   -3.365635    2.032724
H      4.282667   -4.419179    0.560046
H      4.587136   -1.636628   -1.764515
H      4.170097   -3.418980   -1.542159
H      5.811916   -2.873592   -1.157861
H     -4.511222    1.847720   -1.962369
H     -5.225610    2.578722   -0.466064
H     -6.230785    1.466382   -1.414663
H     -6.018931   -0.075474    1.398346
H     -5.813371    1.666760    1.207613
H     -4.446636    0.783082    1.887677
H     -4.102724   -1.503788    1.273425
H     -2.686545   -1.086466    2.235703
H     -2.646614   -2.487949    1.172424
H      1.936133    0.868019   -2.028732
H      0.195837    0.682287   -2.125515
H      1.272791   -0.715950   -1.640599
H     -0.621322    2.381969    1.967966
H      0.380943    1.051289    2.486319
H     -1.354563    0.865507    2.455256
H      1.644827   -2.151722    1.515654
H      1.453206   -2.155989   -0.230757
H     -0.487163   -1.393619    2.030250
H     -0.688503   -2.525522    0.617435
H      6.065867    0.011448    1.431755
H      6.209072   -0.847019   -0.121603
H     -3.206236    2.659553   -0.172123
H     -2.703742    1.897241    1.345542
H     -4.536593   -2.478624   -2.038927
H     -4.576627   -2.700563   -0.297450
H     -2.320884   -2.605940   -0.997550
H     -2.609956   -1.094326   -2.023090
H     -0.880369    2.931266   -0.017109
H     -1.341704    1.744760   -1.365612
H      5.027438    0.711725   -1.353753
H      5.800855    1.841407   -0.092739
H      0.994619    2.788067   -0.786398
H      1.337376    2.711719    0.955633
H      3.365358    3.256633    0.031328
H      3.191621    2.357746   -1.469198
H      3.992624   -1.064987    1.862621
H      1.953224    0.051532    1.761894
H     -2.981701    0.704479   -1.440429
H     -0.637868   -0.740372   -0.934503
H     -5.626878   -0.521646   -1.989203
H      3.172978   -0.370773   -0.991232
H     -7.081663   -0.475393   -0.344455
H      4.391631    3.410027    2.765758
