24

C     -2.235529   -0.793117   -0.034086
C     -0.778583   -0.415158    0.085850
C     -0.603767    1.043931    0.363148
C      0.736979    1.513197   -0.154474
C      1.747822    0.397861    0.010111
C      1.278527   -0.868205   -0.673296
O     -2.341378   -2.174530   -0.192290
O     -0.602737    1.245953    1.743775
O      0.645034    1.973342   -1.450995
O      1.893410    0.196695    1.390056
O      2.044655   -1.094996   -1.828039
O     -0.065305   -0.790468   -1.050795
H     -2.737210   -0.493082    0.896058
H     -2.684611   -0.338245   -0.939419
H     -0.359972   -1.013994    0.927672
H     -1.432971    1.633671   -0.051505
H      1.104893    2.354133    0.495400
H      2.724596    0.682102   -0.419800
H      1.378276   -1.752483   -0.017633
H     -2.268174   -2.551966    0.738593
H     -1.321348    1.831358    2.046686
H     -0.310747    2.220318   -1.602092
H      1.924458   -0.762883    1.618404
H      2.263681   -2.043433   -1.901329
