81

C     -5.780488   -1.062500    2.306945
C     -2.985557   -2.210399    1.186488
C      5.658536    0.589749   -0.480420
C      5.179400    0.440421    1.893207
C      3.043886   -0.538755   -2.059214
C     -0.910624    1.227553    1.525850
C      0.820457    1.670040   -1.599057
C     -1.096690   -1.223641   -0.924162
C      0.317229   -1.441982   -1.223268
C     -5.816386   -0.077320    0.080541
C      2.930304    1.530591    0.428294
C      4.357609   -2.468672   -0.280796
C      2.876145   -2.179166   -0.316497
C      1.457139    1.605144    0.704580
C     -5.134477    1.249582    0.056615
C     -1.507219    2.205347   -0.585094
C     -2.958054    2.292679   -0.235501
C     -5.124421   -1.093116    0.923530
C     -3.620598   -0.821006    1.070613
C     -1.678280   -0.178977   -0.381002
C      3.344850    0.060705    0.380475
C      1.134111   -0.515188   -0.387484
C      5.156532   -1.576037    0.570166
C     -3.145606   -0.222914   -0.191859
C     -3.985396    1.116801   -2.065749
C      4.798504   -0.128712    0.510503
C      2.616681   -0.691812   -0.660718
C     -0.839131    0.966165    0.014458
C      0.610944    0.861443   -0.331771
C     -3.775733    1.084513   -0.582489
O      6.510166   -1.687760    0.174932
O     -3.443408    2.011526   -2.800223
O     -4.763564    0.205059   -2.752758
H     -5.815425   -0.015290    2.673203
H     -5.191258   -1.670158    3.040457
H     -6.814283   -1.400904    2.192394
H     -3.396215   -2.620400    2.155622
H     -3.427729   -2.825185    0.397821
H     -1.895939   -2.172613    1.204558
H      5.974685   -0.111280   -1.308266
H      6.644618    0.842707    0.015177
H      5.262054    1.536618   -0.843094
H      6.140134   -0.043347    2.163922
H      5.400097    1.516693    1.747071
H      4.371445    0.251439    2.618717
H      3.798606    0.254192   -2.245748
H      2.167318   -0.373221   -2.715684
H      3.531056   -1.458810   -2.513713
H     -0.453242    2.224357    1.675175
H     -1.981462    1.465771    1.815913
H     -0.507261    0.414597    2.123766
H      0.214532    1.357834   -2.445510
H      0.517599    2.719306   -1.346419
H      1.894914    1.807912   -1.841451
H     -1.801808   -2.059858   -1.189857
H      0.540437   -2.516961   -0.925304
H      0.556036   -1.449913   -2.304037
H     -5.985761   -0.522607   -0.919722
H     -6.849977    0.104594    0.489365
H      3.431355    1.930398    1.351310
H      3.296524    2.119606   -0.402144
H      4.784016   -2.507752   -1.295950
H      4.444422   -3.512732    0.121165
H      2.537142   -2.753644   -1.231288
H      2.354991   -2.475595    0.591075
H      1.279643    1.198484    1.706904
H      1.229371    2.686948    0.723037
H     -5.726424    1.927257   -0.615552
H     -5.055223    1.640969    1.074096
H     -1.054222    3.148845   -0.159470
H     -1.422910    2.272537   -1.665039
H     -3.174332    2.709184    0.775991
H     -3.363703    3.120658   -0.905120
H     -5.310781   -2.103695    0.529402
H     -3.494753   -0.339579    2.008779
H      2.916598   -0.324010    1.354979
H      1.028667   -0.916338    0.673317
H      5.141099   -1.966106    1.627778
H     -3.603950   -0.950671   -0.946785
H      7.095221   -1.107206    0.689996
H     -4.472781   -0.052391   -3.689969
