30

C     -2.068183   -0.213313   -1.572403
C     -2.142364   -1.401480    1.042377
C     -2.292098    0.927428    1.101628
C      3.778100   -0.126812    0.958677
C      3.265577   -0.949881   -0.020322
C      3.083643    1.003047    1.324027
C      2.071118   -0.628744   -0.615079
C      1.890373    1.315714    0.724419
C     -0.970732   -0.208035   -0.559047
C      1.373839    0.495733   -0.255554
C      0.067898    0.801202   -0.944751
N     -1.396297   -0.167073    0.806621
O      0.376056    0.631849   -2.315757
H     -1.698979   -0.746899   -2.480230
H     -2.989883   -0.723359   -1.217701
H     -2.298627    0.833062   -1.934991
H     -2.072360   -1.609603    2.148070
H     -1.719764   -2.258116    0.500573
H     -3.214269   -1.212705    0.842792
H     -3.369535    0.585012    1.081407
H     -2.110394    1.242101    2.149296
H     -2.233929    1.771428    0.420054
H      4.721684   -0.410834    1.405459
H      3.777962   -1.857538   -0.340635
H      3.500487    1.640683    2.095928
H      1.654609   -1.260265   -1.383137
H      1.352940    2.214277    1.024733
H     -0.451519   -1.211794   -0.666590
H     -0.175619    1.843983   -0.746903
H      0.290267   -0.319071   -2.572963
