23

C     -3.840642    0.170803   -1.230537
C      3.518882   -0.468456   -0.994492
C      0.535213    0.762760    0.236235
C      1.699065    0.526637    1.173402
C     -0.348250   -0.465864    0.132866
C     -1.457842   -0.144300   -0.801207
N     -0.900603   -0.725144    1.426418
O     -1.245034    0.125185   -2.011764
O     -2.762226   -0.130090   -0.372320
S      2.707703   -0.853036    0.563383
H     -3.820482   -0.367703   -2.181171
H     -4.801854   -0.017643   -0.738036
H     -3.763929    1.265491   -1.452501
H      3.826133   -1.425799   -1.464677
H      2.906916    0.131749   -1.678390
H      4.472725    0.084092   -0.794610
H     -0.042186    1.619720    0.627777
H      0.899394    0.999118   -0.764041
H      2.262997    1.447852    1.319201
H      1.317276    0.217701    2.178150
H      0.235512   -1.331978   -0.217977
H     -0.477326   -1.541797    1.911946
H     -0.921441    0.120703    2.041616
