26

C     -2.092538   -1.053654    0.185686
C      3.216761   -0.726930    0.323901
C      2.229076   -0.915178    1.252378
C      2.938464   -0.022788   -0.808180
C      0.955983   -0.399781    1.053875
C      1.683006    0.482064   -0.997669
C     -1.778543    0.402152    0.451256
C      0.651364    0.314574   -0.081497
C     -0.643100    0.898604   -0.394177
N     -2.972353    1.151723    0.025649
O     -0.988817    0.632643   -1.737518
Cl     0.687177    0.000000    0.000000
H     -1.684535   -1.338320   -0.806524
H     -1.760632   -1.723109    1.000374
H     -3.204326   -1.226909    0.101387
H      4.229098   -1.120612    0.452040
H      2.439820   -1.472966    2.154837
H      3.704325    0.146073   -1.570247
H      0.180047   -0.542860    1.774518
H      1.501014    1.038569   -1.914723
H     -1.665857    0.578493    1.518052
H     -0.568153    2.003250   -0.327999
H     -2.722871    2.178321    0.012903
H     -3.138677    0.899891   -0.985369
H     -0.508555   -0.183251   -2.058694
H     -0.687177    0.000000    0.000000
