60

C      5.019427   -1.475315    1.121211
C      5.641224    0.417385   -0.358520
C     -3.860099    0.479047   -0.804343
C     -0.891342    1.978366   -1.103862
C     -2.528695    1.814510    1.441245
C      2.869492    0.526372    0.894757
C      0.147114   -0.749174   -2.055829
C      1.560211    0.968779    0.978842
C     -1.290359   -0.764400   -1.657878
C     -3.099149    0.432454    1.481409
C     -1.026169    1.637457    1.295781
C      2.375708   -0.700808   -1.057136
C     -3.445795   -1.671887    0.413241
C      4.726755   -0.767826   -0.173205
C      3.304450   -0.307721   -0.110907
C      1.062256   -0.286099   -1.014163
C      0.688605    0.551291    0.021725
C     -1.530275   -0.298799   -0.240340
C     -2.964958   -0.287493    0.123532
C     -0.767481    0.959849   -0.005846
N     -3.599568   -2.557523   -0.650879
C     -0.997516   -0.070592   -0.025529
C      0.438357    0.286637    0.101873
O      0.867778    1.294345    0.718718
O      1.408574   -0.515423   -0.482373
H      4.185577   -2.152939    1.346904
H      5.195980   -0.719559    1.901552
H      5.951043   -2.067513    1.007167
H      5.718096    0.656354   -1.427308
H      6.627873    0.167647    0.057338
H      5.228440    1.296869    0.168378
H     -3.424178    1.434325   -1.076337
H     -4.821570    0.677393   -0.279686
H     -4.117990   -0.059548   -1.729499
H      0.110343    2.459395   -1.317057
H     -1.242541    1.591437   -2.059365
H     -1.515588    2.847552   -0.739370
H     -2.962441    2.437649    0.636897
H     -2.691730    2.261608    2.436955
H      3.576876    0.846487    1.644917
H      0.515137   -1.735617   -2.424573
H      0.229430   -0.075254   -2.955951
H      1.228853    1.622673    1.770354
H     -1.597267   -1.852836   -1.673578
H     -1.972583   -0.280991   -2.392022
H     -4.194978    0.494617    1.669711
H     -2.577182   -0.161287    2.235445
H     -0.583987    2.647991    1.267610
H     -0.685432    1.069771    2.185820
H      2.727613   -1.362724   -1.852452
H     -4.421664   -1.648851    0.986462
H     -2.720662   -2.113334    1.154733
H      4.822286   -1.420545   -1.061949
H     -1.041819   -1.085704    0.406078
H     -3.971171   -3.463345   -0.343687
H     -3.966117   -2.210187   -1.545296
H     -1.573784    0.876035    0.004611
H     -1.236410   -0.565483   -0.969643
H     -1.264129   -0.754979    0.804127
H      2.357131   -0.550540   -0.151784
