60

C      5.438739    1.291073   -0.192298
C      5.275429   -0.702519    1.238283
C     -3.473826    1.471732    0.053875
C     -1.026991    1.149781   -1.807581
C     -2.387990   -1.853809   -1.205651
C      2.891767   -0.699144   -1.390757
C      0.430709    1.336323    1.427363
C      1.526251   -0.658449   -1.575229
C     -0.998037    0.954928    1.448013
C     -3.417554   -0.854931   -0.785782
C     -1.074961   -1.279478   -1.620258
C      2.648135    0.559290    0.597864
C     -3.517955   -0.387674    1.612403
C      4.937828   -0.133453   -0.101268
C      3.447445   -0.087807   -0.301014
C      1.267285    0.614649    0.434113
C      0.725380    0.005330   -0.648953
C     -1.448270    0.002483    0.406773
C     -2.950735    0.102758    0.272332
C     -0.725757    0.019160   -0.887886
N     -4.966701   -0.407482    1.576825
C     -0.982423   -0.121106    0.054849
C      0.442891    0.292681   -0.104849
O      0.735917    1.510081    0.006159
O      1.451791   -0.616662   -0.370601
H      6.361636    1.418439    0.390383
H      5.664996    1.530372   -1.258370
H      4.638304    1.968743    0.139187
H      5.294899    0.098761    2.004186
H      4.586952   -1.519056    1.488501
H      6.319769   -1.119821    1.167322
H     -4.080387    1.860753    0.917892
H     -2.762745    2.248874   -0.200475
H     -4.216477    1.428900   -0.794714
H     -0.375381    0.987702   -2.719996
H     -2.058517    1.151612   -2.211744
H     -0.704016    2.139034   -1.422089
H     -2.268283   -2.664638   -0.436237
H     -2.816592   -2.393596   -2.095722
H      3.513147   -1.226191   -2.128585
H      0.943558    1.177120    2.420188
H      0.530850    2.448493    1.259149
H      1.112974   -1.149655   -2.453011
H     -1.637726    1.887081    1.456257
H     -1.205967    0.512116    2.469268
H     -4.287070   -1.466557   -0.395789
H     -3.826812   -0.360335   -1.691639
H     -1.005459   -1.155400   -2.720488
H     -0.305114   -2.070869   -1.364514
H      3.064252    1.048479    1.464487
H     -3.230117    0.276910    2.443384
H     -3.175254   -1.401393    1.855766
H      5.376414   -0.695111   -0.928069
H     -1.277901   -1.035916    0.835213
H     -5.393807    0.348291    2.141097
H     -5.380316   -1.315532    1.817995
H     -1.134920   -1.157358   -0.279164
H     -1.280034    0.004114    1.129040
H     -1.594456    0.594487   -0.536550
H      2.361235   -0.506237    0.101118
