58

C      8.392494    0.750082    0.811794
C     -7.942212    0.504269    0.574438
C     -7.321012    1.180312   -1.744020
C      7.128835    0.669400   -0.009294
C      6.724332   -0.789300   -0.118359
C      5.473300   -0.982629   -0.919082
C      4.272808   -0.223388   -0.296298
C      4.020174   -0.721259    1.075934
C      3.012963   -0.090309    1.935081
C      1.627144   -0.022041    1.436845
C      1.338411    0.879764    0.314176
C     -4.996875    0.483648    0.006725
C     -3.594125   -0.108255    0.166555
C     -5.947600   -0.516225   -0.562965
C     -0.150004    0.820234   -0.100228
C     -3.012859   -0.564244   -1.138735
C     -7.345147    0.051142   -0.719341
C     -0.459055   -0.560868   -0.518783
C     -1.667030   -1.133771   -0.988000
O     -1.316691   -1.240448    0.478475
H      8.634542    1.793448    1.105278
H      8.256360    0.132209    1.736600
H      9.264627    0.339822    0.250514
H     -7.289014    0.371907    1.450928
H     -8.902016   -0.044253    0.797527
H     -8.264690    1.577057    0.468170
H     -8.263157    1.247554   -2.313892
H     -7.229680    2.126863   -1.157766
H     -6.452681    1.093222   -2.399917
H      7.283125    1.058958   -1.025678
H      6.348449    1.290552    0.463862
H      6.711810   -1.324878    0.829612
H      7.548542   -1.258850   -0.738671
H      5.637322   -0.607562   -1.934208
H      5.239284   -2.051522   -0.937931
H      3.392808   -0.590649   -0.939456
H      4.366025    0.839938   -0.344783
H      5.014242   -0.661739    1.665198
H      3.871605   -1.862380    1.025273
H      3.370547    0.974934    2.163272
H      3.030499   -0.548787    2.990243
H      1.358623   -1.094994    1.127676
H      0.913624    0.129564    2.303159
H      1.986265    0.855398   -0.538868
H      1.428656    1.961734    0.714086
H     -4.960746    1.391245   -0.618590
H     -5.326358    0.740652    1.033851
H     -3.719274   -1.018987    0.831481
H     -2.944554    0.603401    0.700955
H     -6.012652   -1.393261    0.107858
H     -5.648081   -0.840937   -1.583655
H     -0.763370    1.242243    0.709779
H     -0.294567    1.492794   -0.990570
H     -3.040833    0.275678   -1.882098
H     -3.709817   -1.362038   -1.530704
H     -7.972183   -0.765873   -1.129282
H      0.472792   -1.185540   -0.679125
H     -1.573922   -2.178520   -1.415048
