57

C     -0.063546   -5.073998   -0.968077
C     -5.036267    1.382535    1.899658
C     -5.617739   -0.622771    0.878609
C      7.120445    0.461796    1.322661
C     -1.833207    3.977261   -1.402825
C     -0.895025    4.127467   -2.400435
C     -1.831739    2.792426   -0.652559
C      0.012970    3.123590   -2.636808
C      2.867194   -1.527067    0.293897
C      3.674394    0.271964   -0.978200
C      4.016153   -1.493488    1.098156
C      4.806589    0.309861   -0.191427
C     -3.475028    0.194668    0.470700
C     -2.163345    0.732480    1.000850
C     -0.241041   -3.659165   -1.407163
C      2.671520   -0.675114   -0.730543
C      4.984141   -0.568373    0.846886
C     -0.931866    1.799590   -0.888239
C      0.026352    1.940313   -1.899550
C      0.248784   -1.255245   -1.156442
C      1.511132   -0.671565   -1.633429
C     -0.340058   -0.497555   -0.054482
N     -4.513251    0.149238    1.428224
N     -1.135709    0.717455   -0.000339
O     -0.992781   -3.381893   -2.390878
O     -0.122600   -0.996095    1.112753
O      6.131716   -0.510446    1.621563
O      0.392453   -2.613554   -0.773250
S      1.287324    0.892373   -2.466182
Cl     0.684009    0.000000    0.000000
H     -0.181237   -5.097101    0.150764
H      0.980135   -5.363784   -1.167045
H     -0.818847   -5.694637   -1.480889
H     -6.091208    1.277787    2.294011
H     -4.370425    1.766190    2.713178
H     -5.090946    2.168375    1.121719
H     -5.253237   -1.654800    0.686087
H     -5.832410   -0.168606   -0.130876
H     -6.527743   -0.563807    1.474747
H      6.713539    1.470981    1.449202
H      7.410584    0.331960    0.238585
H      8.063810    0.264319    1.875967
H     -2.567492    4.745494   -1.184847
H     -0.919064    5.051228   -2.961748
H     -2.553843    2.652038    0.123665
H      0.734485    3.304319   -3.445407
H      2.169541   -2.294310    0.564041
H      3.593835    0.989602   -1.775262
H      4.146291   -2.194189    1.912294
H      5.601490    1.039392   -0.366444
H     -3.291643   -0.865633    0.116291
H     -3.781327    0.709249   -0.490705
H     -2.216532    1.574403    1.676216
H     -1.860825   -0.082997    1.741795
H     -0.446478   -1.298826   -2.046992
H      1.831583   -1.393335   -2.507373
H     -0.684009    0.000000    0.000000
