51

C     -2.206276   -1.652854    1.678007
C     -2.016500   -2.170948   -4.038185
C     -1.060087   -1.538526    0.781910
C     -1.882679   -2.309181   -2.749537
C      2.933609    1.262432   -0.462602
C      0.857819    3.687506    2.454402
C      2.050268    0.468392   -1.432439
C      0.366525    3.375886    1.024834
C     -1.425860    1.070203   -0.055789
C      0.713920   -2.322585   -1.461014
C     -2.048422    0.019254   -0.906093
C     -0.337170   -3.306187   -1.377949
C      2.815380    2.249927    1.749358
C      2.220315    1.765390    0.663774
C      1.876307    2.735481    2.824769
C      0.741392    1.966431    0.718151
C      0.036035    1.290246   -0.411623
C      0.816285    0.028530   -0.661752
C      0.062367   -0.998115   -1.375925
C     -1.284493   -1.296392   -0.680179
C     -1.761872   -2.466061   -1.374189
O      2.076742    2.242812    3.994991
O     -2.625566   -3.373288   -0.849847
H     -3.200130   -1.821777    1.182464
H     -2.392366   -0.777172    2.360275
H     -2.157694   -2.513539    2.422331
H     -2.130518   -2.021740   -5.276620
H     -0.308600   -0.874847    1.256473
H     -0.535909   -2.566630    0.803975
H      3.623154    0.433302   -0.041260
H      3.607328    1.966780   -0.956796
H      1.175395    4.756740    2.532235
H     -0.013259    3.518563    3.166831
H      1.778747    1.162781   -2.240929
H      2.599123   -0.371710   -1.843491
H      0.718442    4.136710    0.334675
H     -0.757076    3.411356    1.089614
H     -1.413635    0.862089    1.033396
H     -1.898031    2.071213   -0.237207
H      1.364698   -2.423465   -2.390993
H      1.487207   -2.379328   -0.642213
H     -3.123292   -0.099552   -0.769162
H     -1.855260    0.279372   -1.968915
H     -0.387115   -4.010370   -0.558866
H     -0.398868   -3.906250   -2.343195
H      3.868568    2.317824    1.910661
H      0.464711    1.392897    1.695600
H      0.063709    1.929846   -1.350095
H      1.220961   -0.347123    0.316117
H     -0.163436   -0.671634   -2.434636
H     -2.154893   -4.182689   -0.457210
