39

C     -3.730028   -0.504309   -0.428390
C     -2.370501   -1.183671    1.473836
C      1.812930   -2.845069   -0.805633
C      1.412946    1.546138    1.504454
C      3.111257   -0.849367   -0.006918
C      3.041808    0.519260   -0.643751
C     -1.592917    1.544793    0.267840
C     -0.304224    2.276312   -0.114807
C     -2.346114   -0.838966    0.007800
C      1.971872   -1.546399   -0.603686
C     -1.327536    0.199197   -0.336732
C      1.612397    0.811521   -0.923622
C      0.957515   -0.527418   -0.972976
C      0.047344   -0.110577    0.136619
C      0.743723    1.230552    0.203082
H     -3.952755   -0.889261   -1.465222
H     -4.492820   -0.982733    0.223409
H     -3.957976    0.573043   -0.437882
H     -2.190688   -0.319585    2.133021
H     -3.388663   -1.572827    1.715453
H     -1.679195   -2.038666    1.706086
H      2.608907   -3.514263   -0.502950
H      0.934863   -3.275129   -1.254949
H      0.775423    2.247993    2.117214
H      2.335274    2.121557    1.286168
H      1.582301    0.670685    2.150977
H      3.128929   -0.824979    1.087618
H      4.048007   -1.383072   -0.320704
H      3.563207    0.418329   -1.640888
H      3.584861    1.291178   -0.098094
H     -1.648753    1.526751    1.364869
H     -2.409938    2.095998   -0.220044
H     -0.177239    3.188413    0.485244
H     -0.341651    2.441094   -1.201149
H     -2.044114   -1.776029   -0.529164
H     -1.321112    0.325354   -1.438220
H      1.415761    1.366015   -1.881527
H      0.432222   -0.770444   -1.921269
H      0.154679   -0.641417    1.091417
