52

C      5.220067    1.494593   -0.624694
C      5.643121   -0.833343   -0.036263
C     -3.447823   -0.027234   -1.989373
C     -0.996752   -2.046822    0.478793
C     -2.930705   -0.368722    1.765455
C      2.718184    0.333165    1.559377
C      0.552764   -0.936766   -1.840969
C      1.363943    0.120307    1.660239
C     -0.829130   -0.401797   -1.943294
C     -3.513521   -0.561056    0.409382
C     -1.482151   -0.036816    1.798862
C      2.660930   -0.270354   -0.716487
C     -3.271866    1.742144   -0.346862
C      4.838153    0.389278    0.338761
C      3.397836    0.144460    0.375309
C      1.302600   -0.488717   -0.633932
C      0.651374   -0.291812    0.562269
C     -1.357334    0.160740   -0.667307
C     -2.847933    0.304048   -0.640472
C     -0.809688   -0.550758    0.557119
N     -4.716970    1.854008   -0.310748
H      4.873992    1.294574   -1.647877
H      4.868760    2.464185   -0.226258
H      6.326680    1.543217   -0.638882
H      6.708657   -0.484383   -0.138447
H      5.357377   -1.261335   -0.996584
H      5.612799   -1.555260    0.805606
H     -2.928485    0.582071   -2.751419
H     -3.488234   -1.090136   -2.214513
H     -4.512734    0.331106   -2.004993
H     -0.022837   -2.599753    0.630938
H     -1.647880   -2.399833    1.305857
H     -1.372069   -2.391765   -0.497598
H     -3.473001    0.458696    2.311121
H     -3.161544   -1.283626    2.384259
H      3.264607    0.663557    2.456444
H      0.571622   -2.064155   -1.906534
H      1.126710   -0.582482   -2.721712
H      0.860395    0.277850    2.605489
H     -0.903144    0.425997   -2.710616
H     -1.465254   -1.217472   -2.373091
H     -3.567249   -1.624217    0.093185
H     -4.589003   -0.224232    0.447093
H     -1.028084   -0.610402    2.660958
H     -1.288231    1.012832    2.022667
H      3.198717   -0.416963   -1.643056
H     -2.834951    2.417862   -1.119598
H     -2.900072    2.104309    0.631838
H      5.181317    0.709905    1.338732
H     -0.933109    1.207751   -0.593206
H     -5.030639    1.751138    0.679127
H     -4.950211    2.832420   -0.593214
