52

C      4.791292    1.809113   -0.905760
C      5.321840    0.216664    0.857253
C     -3.881654   -0.474467    0.912468
C     -0.861995   -1.871048    1.519537
C     -2.153219   -1.379945   -1.953285
C      2.756403   -1.132098   -1.009444
C      0.251514    1.096081    1.534046
C      1.425364   -1.544065   -0.877770
C     -1.205284    0.755176    1.546368
C     -3.239803   -0.461038   -1.463598
C     -1.451061   -2.091721   -0.821546
C      2.389664    0.648829    0.473645
C     -3.416935    1.611703   -0.226860
C      4.672330    0.375835   -0.500265
C      3.252422   -0.049218   -0.348764
C      1.068784    0.269282    0.626676
C      0.592583   -0.836389   -0.058144
C     -1.545490    0.154930    0.213834
C     -2.982182    0.136771   -0.118695
C     -0.828210   -1.177740    0.157501
N     -2.569699    2.224477   -1.207345
H      4.624258    2.464183   -0.029627
H      5.854377    1.981981   -1.212031
H      4.144391    2.074917   -1.756590
H      4.622886    0.489170    1.658279
H      5.721358   -0.810805    0.999027
H      6.187497    0.895621    0.881731
H     -4.896189    0.006286    0.780852
H     -3.563068   -0.182995    1.935789
H     -4.050078   -1.541817    0.786354
H     -0.575798   -2.942160    1.305493
H     -0.063883   -1.494883    2.191809
H     -1.851326   -1.893067    1.964354
H     -1.392070   -0.861900   -2.570614
H     -2.608349   -2.161264   -2.596096
H      3.373667   -1.723229   -1.667857
H      0.382402    2.160417    1.230095
H      0.644814    1.026848    2.572732
H      1.114965   -2.410876   -1.434629
H     -1.763370    1.660703    1.779637
H     -1.384945    0.046049    2.389839
H     -4.212556   -1.030379   -1.437819
H     -3.373076    0.314950   -2.244644
H     -2.269112   -2.688086   -0.310506
H     -0.789788   -2.852356   -1.267966
H      2.784982    1.525723    1.010786
H     -3.451730    2.088272    0.749374
H     -4.453417    1.544280   -0.668575
H      5.161055   -0.311755   -1.189444
H     -1.050857    0.817409   -0.558823
H     -2.187229    3.144446   -0.933498
H     -3.066475    2.383186   -2.127241
