46

C     -5.628766    0.053052    1.951397
C     -4.585937   -1.616573    0.369543
C      7.244238    1.097299    0.222173
C      6.454934   -0.037165    0.205954
C      6.712213    2.319769   -0.109837
C      1.459973   -1.561631   -2.042295
C      0.753277   -1.950181   -0.906459
C      5.119843    0.086431   -0.151507
C      5.377440    2.420433   -0.463512
C      2.266969   -0.444379   -2.009810
C      1.701360   -0.076676    0.238616
C     -3.840182    0.768912   -1.270169
C      0.167047   -1.536859    1.471158
C      0.889375   -1.188239    0.230549
C      4.563728    1.302256   -0.488535
C      2.411899    0.328248   -0.874963
C     -4.009042    0.912252    0.180702
C     -4.450287    1.551050   -2.151994
C     -3.154622    0.300947    1.195670
C     -2.004748   -0.585501    0.879303
C     -4.551820   -0.222307    0.955016
Cl    -5.503821    2.809724   -1.544572
Cl    -4.255817    1.388650   -3.882212
O     -1.969487   -1.247704   -0.175521
O     -0.933414   -0.704328    1.748231
O      3.232343    1.459633   -0.850523
H     -6.400926    0.734164    1.487032
H     -5.253466    0.625784    2.842797
H     -6.163119   -0.853315    2.246060
H     -5.561651   -2.113552    0.548251
H     -4.347739   -1.644068   -0.702710
H     -3.810362   -2.211573    0.894959
H      8.290063    1.025769    0.498113
H      6.816458   -1.018559    0.455906
H      7.321806    3.202785   -0.098415
H      1.343060   -2.169808   -2.927988
H      0.123444   -2.828996   -0.934259
H      4.494714   -0.794967   -0.167112
H      4.959579    3.385709   -0.725103
H      2.806858   -0.164795   -2.911641
H      1.810407    0.529135    1.140797
H     -3.197903    0.002651   -1.682711
H      0.917426   -1.470718    2.299114
H     -0.134411   -2.611596    1.448843
H     -4.430997    1.926523    0.459463
H     -3.049938    0.822316    2.181793
