40

C      4.324813   -1.450483   -1.265041
C     -4.712876    0.342625   -1.851585
C     -3.432384    0.725119   -2.226794
C     -2.996853   -1.390840    2.299632
C      3.112046    2.919379    1.433776
C     -4.901721   -0.278561   -0.626023
C     -4.048268   -1.144971    1.447403
C     -2.385245    0.474592   -1.366535
C     -1.708178   -1.010925    1.932208
C      2.855467    1.629417    1.174191
C      1.836395   -1.065733    0.180385
C      2.173482   -0.501573   -1.179798
C      2.060672    3.754614    1.735904
C     -3.844888   -0.526720    0.232642
C     -2.584527   -0.146773   -0.143803
C     -1.517347   -0.397328    0.722911
C      0.936681   -0.131494    0.978704
C      1.602616    1.173931    1.209869
N      3.033534   -1.409033   -1.916322
O     -0.278662   -0.006921    0.318870
S      0.666957    2.553488    1.621261
H      5.090178   -1.879763   -1.958439
H      4.674739   -0.454328   -0.960379
H      4.291748   -2.069161   -0.337343
H     -5.567784    0.516443   -2.495382
H     -3.305726    1.206848   -3.179827
H     -3.169190   -1.874018    3.247175
H      4.133199    3.393812    1.427088
H     -5.893758   -0.591311   -0.300121
H     -5.052347   -1.429011    1.709826
H     -1.389240    0.758732   -1.630875
H     -0.943708   -1.234604    2.643047
H      3.699572    0.928984    0.935485
H      2.708495   -1.384830    0.746215
H      1.226256   -1.983173   -0.014564
H      1.229213   -0.326714   -1.749859
H      2.694571    0.471622   -1.140026
H      1.955867    4.785342    1.977354
H      0.801925   -0.608409    1.960622
H      2.624275   -2.338270   -2.044077
