42

C     -4.026884   -2.729517    0.936097
C      5.166053    0.149378    1.325972
C      4.037481    0.660923    1.944650
C      2.626198   -1.440789   -2.348433
C     -2.493229    3.464570   -1.421137
C      5.131571   -0.494043    0.125979
C      3.839945   -1.291006   -1.721100
C      2.827661    0.499103    1.294432
C      1.473784   -0.928524   -1.735419
C     -2.175790    2.171700   -1.517552
C     -1.840110   -0.591780    0.602641
C     -3.227042   -0.646770    0.025374
C     -2.077781    4.194036   -0.346104
C      3.911503   -0.646058   -0.509298
C      2.764905   -0.152082    0.072012
C      1.505660   -0.279445   -0.527194
C     -0.935685    0.179228   -0.379403
C     -1.447647    1.552616   -0.574780
N     -4.183120   -1.323314    0.801106
O      0.378210    0.214680    0.060640
S     -1.144208    2.863786    0.596409
Cl     0.686385    0.000000    0.000000
H     -5.028245   -3.197280    0.723400
H     -3.366439   -3.092442    0.120068
H     -3.731577   -3.085011    1.931152
H      6.138790    0.261256    1.815221
H      4.106361    1.168757    2.904184
H      2.559108   -1.940324   -3.289592
H     -3.106852    4.027429   -2.193265
H      6.002542   -0.898861   -0.369401
H      4.741309   -1.678354   -2.175921
H      1.911915    0.889802    1.751696
H      0.559124   -1.080733   -2.281425
H     -2.528414    1.576551   -2.417116
H     -1.417497   -1.558452    0.848487
H     -1.861172    0.026610    1.522907
H     -3.595596    0.397026   -0.158320
H     -3.166178   -1.118022   -0.985573
H     -2.162161    5.159353   -0.011704
H     -1.028518   -0.314921   -1.369305
H     -5.137976   -0.969078    0.795547
H     -0.686385    0.000000    0.000000
