31

C      3.651384    0.548465    0.920214
C      2.300441    0.636913    1.157639
C     -2.964776   -1.702708    0.344367
C     -1.980125   -0.597702    0.657348
C      4.051229   -0.103720   -0.222759
C     -2.107321    0.531772   -0.370683
C      0.020574    0.203421    0.559724
C      1.815564   -0.544453   -0.835885
C     -0.714443    1.126663   -0.357013
F     -0.166409    1.260921   -1.587690
F     -0.826351    2.404641    0.199095
N      5.328591   -0.182750   -0.439422
N      3.142724   -0.621303   -1.051924
N      1.424193    0.097403    0.288850
O     -4.238714   -1.189888    0.599950
O     -3.072771    1.418851    0.054413
O      0.915506   -1.102363   -1.734694
O     -0.659661   -0.993270    0.438643
Cl     0.682955    0.000000    0.000000
H      4.344954    0.984569    1.623424
H      1.988790    1.153727    2.063044
H     -2.849020   -2.099594   -0.664924
H     -2.793471   -2.498519    1.103405
H     -2.096284   -0.212533    1.677735
H     -2.340971    0.034593   -1.329597
H     -0.154138    0.566619    1.603383
H      5.683967   -0.677540   -1.309874
H     -4.754397   -1.294748   -0.228795
H     -3.942621    1.294341   -0.429125
H      0.993558   -0.937356   -2.728850
H     -0.682955    0.000000    0.000000
