26

C      3.167152    0.599750    0.919049
C      1.813286    0.826971    0.924910
C     -3.472730   -0.970942   -0.896283
C     -0.863339    0.473342    1.575439
C      3.732170   -0.229877   -0.023681
C     -0.404956    0.554396    0.109360
C     -2.492240    0.124173   -0.576079
C      1.549944   -0.548845   -0.891073
N      4.985912   -0.454842   -0.047719
N      2.875583   -0.786424   -0.916127
N      0.976160    0.257606    0.020157
O     -4.758762   -0.414460   -0.858710
O      0.734033   -1.150819   -1.833090
O     -1.181685   -0.354427   -0.593991
S     -2.672725    0.454398    1.227745
H      3.815798    1.062699    1.647951
H      1.428713    1.494882    1.698673
H     -3.267028   -1.486292   -1.840475
H     -3.434210   -1.700634   -0.040658
H     -0.576329    1.375001    2.111935
H     -0.601344   -0.475134    2.037749
H     -0.692608    1.567702   -0.234188
H     -2.640303    1.032754   -1.155457
H      5.595861   -0.003474    0.658239
H     -4.744887    0.505266   -0.469041
H      1.128535   -1.752769   -2.554636
