81

C      1.189198   -3.900986    0.406453
C      8.994537    4.071961   -1.362782
C      1.752268   -3.020773    1.504577
C      7.899704    3.142849   -0.893149
C     -9.020920    2.580945    0.068305
C     -9.300025    1.931939   -1.270788
C     -7.517985    2.695192    0.211575
C     -0.859397    1.049723    0.193291
C      0.459163    1.384747   -0.034643
C     -6.631460   -1.389119   -1.152199
C     -6.811209   -1.286001    1.368357
C     -8.752682    0.525803   -1.224266
C     -6.848354    1.360980   -0.063683
C     -5.412539   -2.200077   -0.876002
C     -5.328116   -1.315591    1.430295
C     -0.171115   -1.067925    0.928530
C      6.100836    0.973223   -0.321707
C      4.667802   -2.093832    0.931799
C      9.431372   -0.759465    0.062369
C     -7.426368   -0.993077    0.049235
C     -1.212838   -0.195456    0.684854
C      2.115380   -1.691637    0.982037
C      1.151784   -0.748016    0.706010
C      3.438124   -1.329630    0.743717
C      7.954671   -0.465304    0.069154
C      7.479646    0.759004   -0.349393
C      1.480788    0.493263    0.217752
C      5.233935   -0.007986    0.111056
C      3.778422   -0.090502    0.255571
C      7.050923   -1.428328    0.498160
C      9.615851    1.684537    0.120450
C     -3.319265   -1.174377   -0.029987
C      8.455332    1.763132   -0.797622
N      2.774495    0.786237    0.007395
N     -7.877549    0.369645   -0.095257
N     -4.670291   -1.557353    0.175663
N      5.712680   -1.193186    0.514978
O      7.516908   -2.538728    0.875128
O     10.042725    2.684636    0.739246
O     -2.767183   -1.400980   -1.152983
O      8.872943    1.383932   -2.084764
O     10.199619    0.411806    0.245637
O     -2.543473   -0.559152    0.924007
H      1.941964   -4.615265    0.008254
H      0.913326   -3.233513   -0.435324
H      0.308156   -4.421661    0.801511
H      9.809162    3.466723   -1.809167
H      9.431635    4.572014   -0.479512
H      8.624849    4.801219   -2.115345
H      1.091676   -2.982852    2.395362
H      2.697156   -3.521969    1.849983
H      7.523575    3.534718    0.076057
H      7.101164    3.170792   -1.664767
H     -9.384714    1.916854    0.859821
H     -9.423230    3.610370    0.138513
H     -8.733542    2.509605   -2.019058
H    -10.387673    1.902456   -1.490241
H     -7.318906    2.995575    1.254823
H     -7.098666    3.478770   -0.450419
H     -1.639694    1.772464   -0.015274
H      0.690492    2.359892   -0.416189
H     -7.236475   -1.969563   -1.911112
H     -6.304062   -0.481437   -1.732163
H     -7.153486   -0.471576    2.073491
H     -7.257610   -2.216626    1.827589
H     -9.549058   -0.220468   -1.273302
H     -8.119560    0.355531   -2.137004
H     -6.403360    1.442175   -1.079706
H     -6.096640    1.200826    0.719849
H     -4.813378   -2.243583   -1.808067
H     -5.655194   -3.227169   -0.525056
H     -5.029475   -2.181144    2.095940
H     -4.874655   -0.433600    1.971327
H     -0.433503   -2.043903    1.313130
H      5.713210    1.909560   -0.640709
H      4.624625   -3.001764    0.289927
H      4.751135   -2.388356    1.997619
H      9.715829   -1.340438   -0.821288
H      9.609957   -1.386972    0.978596
H     -8.380212   -1.605156   -0.009882
H      9.846850    1.341399   -2.117173
