53

C     -6.212362    0.368467   -2.349969
C     -7.184936    0.719730   -0.164209
C      7.434499    0.931087    0.219975
C      8.111365    0.560898   -1.083402
C      2.068489    0.361034    1.312069
C      0.761821   -1.248563    0.206947
C      0.991812    1.201509    1.384976
C     -0.309881   -0.395677    0.287129
C      3.105588   -1.850454    0.687210
C      4.128675   -1.672596   -0.369414
C     -4.805829    0.500747    0.931053
C      5.776543   -0.426131   -1.233048
C     -2.613611    1.572305    0.582782
C     -6.180172   -0.128876   -0.933194
C      2.004185   -0.887555    0.727682
C      6.650440    0.806242   -1.066331
C     -3.378372    0.546273    1.420059
C     -0.263791    0.866373    0.874500
N     -4.836073   -0.010774   -0.403697
O     -3.353379    0.989106    2.767388
O      4.813980   -0.461172   -0.219960
O     -1.311435    1.708600    0.947690
Cl     0.685824    0.000000    0.000000
H     -5.291305    0.070520   -2.890182
H     -6.275022    1.469844   -2.309893
H     -7.149770    0.024469   -2.883669
H     -6.894566    1.764725   -0.062816
H     -8.138350    0.639964   -0.749885
H     -7.343313    0.278565    0.823279
H      7.295483    0.124049    0.987879
H      7.613578    1.916108    0.641789
H      8.558205   -0.441316   -1.079227
H      8.825755    1.333801   -1.460916
H      3.048079    0.640538    1.722533
H      0.684310   -2.229023   -0.260317
H      1.115663    2.178741    1.865895
H     -1.264684   -0.702172   -0.154566
H      3.537886   -1.871245    1.719089
H      2.699754   -2.907850    0.560156
H      3.669537   -1.682872   -1.380557
H      4.873949   -2.521622   -0.384112
H     -5.444627   -0.109308    1.631334
H     -5.171168    1.554546    0.920266
H      5.267618   -0.381998   -2.214917
H      6.405745   -1.337710   -1.230176
H     -2.786757    1.291604   -0.477521
H     -3.135219    2.553925    0.749142
H     -6.559543   -1.169495   -0.914951
H      6.272938    1.707774   -1.565886
H     -2.932156   -0.438690    1.341433
H     -4.417719   -0.966836   -0.477673
H     -2.461860    1.336176    3.008228
H     -0.685824    0.000000    0.000000
