50

C      5.290175   -1.043104   -1.432197
C     -3.790901    3.857533    0.327820
C     -1.729721   -2.670526   -0.127471
C      3.810456   -1.172882   -1.036582
C      2.824361   -0.020007    2.178112
C      1.562456   -0.213050    1.363492
C     -5.223368   -0.005863   -0.604042
C     -4.771241    1.272366   -0.294617
C      3.952608   -0.328936    1.204618
C      1.111162   -0.448679   -1.006887
C      2.036849    0.189181   -0.040767
C     -4.325669   -1.007444   -0.895368
C     -3.422027    1.489220   -0.291435
C     -2.498123    0.519442   -0.575763
C     -2.950424   -0.739945   -0.880166
C     -1.025072    0.775500   -0.587883
Br    -5.006377   -2.734194   -1.312169
N     -0.216237   -0.094246   -0.849343
N      3.407147   -0.215160   -0.105924
O     -0.620174    2.070638   -0.282332
O     -2.970551    2.774065    0.019833
O     -2.138941   -1.819948   -1.187494
Cl     0.691364    0.000000    0.000000
O     -0.001283    0.374337   -0.000000
H      5.396607   -1.571595   -2.422146
H      5.958984   -1.524981   -0.717518
H      5.483284    0.020901   -1.625818
H     -4.220075    4.263166   -0.618248
H     -3.233384    4.665914    0.883012
H     -4.600232    3.546305    1.024098
H     -2.617256   -3.241130    0.275660
H     -1.273983   -2.128847    0.720553
H     -1.012651   -3.454482   -0.498828
H      3.702041   -2.231588   -0.732020
H      3.256641   -1.081122   -1.984776
H      2.857068   -0.695848    3.055886
H      2.840687    1.046742    2.504802
H      0.745559    0.416289    1.721913
H      1.266707   -1.268068    1.308538
H     -6.305469   -0.177083   -0.606366
H     -5.460471    2.063925   -0.065850
H      4.743091    0.423818    1.369118
H      4.386349   -1.311920    1.455523
H      1.508028   -0.190742   -2.039926
H      1.150748   -1.589444   -0.903403
H      2.034006    1.281941   -0.193537
H      0.087334    2.303888    0.413200
H     -0.691364    0.000000    0.000000
H      0.813995   -0.186747    0.000000
H     -0.812712   -0.187590   -0.000000
