31

C     -3.414139    0.596551   -0.664880
C     -0.983262   -0.316366   -1.611679
C      1.249443   -2.009344   -0.829706
C     -1.525502    0.143120    2.501118
C     -2.557682    0.445107    1.642396
C     -0.321891   -0.300429    2.024351
C      2.549559    0.718369   -1.335309
C      3.477264    1.941382    0.242404
C     -2.337016    0.286045    0.302396
C     -1.106142   -0.166655   -0.166158
C      1.221714   -0.925767    0.194461
C     -0.070562   -0.471152    0.661009
C      2.128110    0.212813   -0.146092
N      3.361056    1.758663   -1.084200
N      2.722506    0.994922    0.810057
H     -3.196224    1.552022   -1.201068
H     -4.394154    0.708876   -0.192732
H     -3.513771   -0.227485   -1.411224
H     -0.011887   -0.265640   -2.060575
H     -1.588741   -1.216684   -1.943121
H     -1.563975    0.516011   -2.131001
H      0.289836   -2.437275   -1.117466
H      1.879139   -1.658087   -1.701354
H      1.847376   -2.912696   -0.488449
H     -1.732360    0.280179    3.567556
H     -3.516113    0.796114    1.980909
H      0.460445   -0.526141    2.723926
H      2.273716    0.338564   -2.301346
H      4.044841    2.678749    0.795912
H      1.731211   -1.395862    1.102735
H      2.597201    0.862098    1.837128
