39

C      1.618045   -2.998973    0.361349
C      3.912057    1.510663    0.662144
C      2.820301    2.295931    0.962336
C     -2.479252    2.899603   -0.606143
C      3.749667    0.306818   -0.038963
C      1.534280    1.923400    0.582761
C     -1.239710    2.263236   -0.757940
C     -3.616461    2.217787   -0.184991
C     -1.191535   -1.917957    0.094395
C     -3.688764   -1.311449    0.580431
C      2.224347   -1.313338   -1.124605
C      2.477462   -0.037880   -0.401099
C     -2.375420   -1.044560    0.221747
C      1.361561    0.780656   -0.086805
C     -1.111305    0.918105   -0.487126
C     -3.486456    0.851288    0.087218
C      0.089311   -1.196406    0.047957
C     -2.253746    0.287056   -0.078714
C      0.105353    0.179644   -0.584039
N     -4.349288   -0.106472    0.484545
N      1.101508   -2.017267   -0.567143
H      0.979168   -3.900089    0.427512
H      2.589897   -3.360428   -0.076656
H      1.871598   -2.558894    1.339496
H      4.913845    1.818437    0.967402
H      2.943225    3.216839    1.498876
H     -2.602323    3.953088   -0.811643
H      4.605453   -0.315006   -0.277380
H      0.674298    2.524968    0.833519
H     -0.427545    2.876607   -1.112439
H     -4.580603    2.685862   -0.059947
H     -1.201684   -2.583254    1.006850
H     -1.337689   -2.526831   -0.828823
H     -4.112321   -2.249717    0.871914
H      1.991121   -1.091757   -2.190410
H      3.123575   -1.943797   -1.067129
H      0.435015   -1.029968    1.113070
H      0.295994   -0.005035   -1.690190
H     -5.362981   -0.000910    0.697294
