31

C     -3.076771    0.535562    1.779513
C     -4.805650    0.583295    0.213646
C      2.833500    0.741472   -0.375743
C      0.203383    0.542489   -0.575183
C      1.498622    0.091873   -0.431200
C      3.651473   -0.309370    0.345090
C     -0.878491   -0.309495   -0.593420
C     -0.670735   -1.663296   -0.463886
C      0.631433   -2.107518   -0.319860
C      1.722031   -1.260921   -0.300443
C      5.088011   -0.151530   -0.011289
Cl    -2.028702   -2.798923   -0.481294
Cl     0.870894   -3.834696   -0.156890
N     -3.508187    0.009184    0.525139
O      5.727643   -0.991685   -0.692697
O      5.763996    0.974330    0.424780
O     -3.110031   -0.207556   -2.035086
O     -2.409402    1.839200   -0.965791
O      3.104694   -1.497683   -0.166966
S     -2.459167    0.350408   -0.778208
H     -3.586677    1.490355    2.053511
H     -2.001418    0.702211    1.876654
H     -3.398231   -0.196992    2.575689
H     -5.609458   -0.100752    0.549425
H     -4.889975    0.763486   -0.892224
H     -4.855982    1.571326    0.688662
H      2.808125    1.696307    0.185244
H      3.197809    0.852442   -1.411960
H      0.023033    1.624683   -0.679889
H      3.481252   -0.180537    1.431874
H      6.682980    1.242330    0.042664
