47

C     -1.321685    4.334865   -0.585812
C     -0.864795    2.908231   -0.921257
C      4.036603   -2.314584   -1.917577
C     -4.345539   -2.696604   -0.449070
C      2.688130   -2.003779   -1.876969
C     -3.662346   -2.236237    0.591246
C      4.818547   -1.927262   -0.858423
C      1.518313    0.925241    0.705958
C      2.301891   -0.224853    1.324922
C     -2.654090   -0.079775    1.658668
C     -1.206240    2.069760    0.273951
C     -1.196231    0.036215    1.385505
C     -4.773189   -1.883970   -1.445531
C      0.699015   -0.986328   -0.730510
C      2.140699   -1.332274   -0.821788
C      0.483293    0.426724   -0.272476
C     -3.377598   -0.874494    0.659187
C      2.967240   -0.959593    0.226366
C      4.314603   -1.238217    0.248545
N     -0.855511    0.673096    0.148381
O      5.168801   -0.884543    1.278598
S     -4.123660   -0.249099   -0.832389
H     -0.724388    4.735316    0.271212
H     -1.138414    5.007511   -1.453681
H     -2.408852    4.359714   -0.379401
H      0.255297    3.015207   -1.054702
H     -1.380488    2.625878   -1.847824
H      4.466953   -2.855959   -2.778901
H     -4.600272   -3.812168   -0.536793
H      2.046684   -2.310018   -2.721977
H     -3.288926   -2.881958    1.448687
H      5.874212   -2.145805   -0.847689
H      1.051299    1.473149    1.550762
H      2.267090    1.609348    0.257952
H      2.960507    0.222368    2.060946
H      1.591347   -0.912559    1.818976
H     -3.147239    0.911486    1.839570
H     -2.751458   -0.591376    2.660676
H     -0.660455    2.511829    1.144595
H     -2.319648    2.145966    0.410441
H     -0.740410    0.596124    2.246970
H     -0.776505   -0.999477    1.475835
H     -5.300142   -1.998419   -2.325659
H      0.289101   -1.098880   -1.777688
H      0.202125   -1.750151   -0.136480
H      0.644415    1.052471   -1.196633
H      4.831914   -0.392119    2.081278
