58

C      7.157508    2.596018   -0.735584
C     -0.858393   -1.273561    0.677021
C     -6.769348    1.518746    2.574721
C      6.746771    1.508926   -1.668815
C      6.397684   -0.807639    1.936154
C      5.224973   -1.480216    2.208638
C      6.587993   -0.044593    0.796562
C      4.201955   -1.381501    1.298853
C     -3.015603    1.015944    0.787591
C     -4.247984    1.198940    1.413704
C      1.215131   -0.849865   -1.763006
C      2.092467   -1.171989   -0.586386
C     -1.603701    0.272665   -1.092492
C     -4.054586    0.078365   -1.114198
C     -1.025904   -1.124046   -0.780351
C     -2.912273    0.464453   -0.457501
C      5.543899    0.048325   -0.118745
C      4.364492   -0.622011    0.145521
C     -5.386401    0.809979    0.750655
C     -5.311554    0.247234   -0.515011
N     -7.566029   -1.437313   -0.390432
N     -0.027965   -1.450185   -1.673768
O     -6.429888   -0.732275   -2.704961
O     -7.654296    0.974326   -1.513637
O     -6.657824    0.952021    1.292305
O      5.624103    0.781823   -1.286915
O      3.338552   -0.512405   -0.784069
S     -6.767465   -0.243462   -1.340756
Cl     0.686908    0.000000    0.000000
H      7.057783    3.614345   -1.182532
H      8.227765    2.475164   -0.481506
H      6.589558    2.634752    0.217319
H     -0.449393   -0.353295    1.139028
H     -1.864297   -1.389631    1.203366
H     -0.283407   -2.131147    1.017874
H     -6.284810    2.520121    2.602913
H     -6.290068    0.920048    3.370166
H     -7.850784    1.664302    2.835378
H      6.526117    1.979528   -2.655361
H      7.594119    0.779221   -1.761149
H      7.209556   -0.876237    2.643258
H      5.115247   -2.058756    3.095680
H      7.509830    0.470865    0.596269
H      3.240301   -1.888285    1.447762
H     -2.118304    1.328313    1.314356
H     -4.295884    1.634363    2.392720
H      1.229405    0.233815   -2.019262
H      1.755253   -1.314160   -2.651393
H      1.672731   -0.949206    0.398701
H      2.227207   -2.294847   -0.602761
H     -1.639569    0.420565   -2.195166
H     -0.908033    1.025192   -0.691656
H     -4.028046   -0.364082   -2.103479
H     -1.916927   -1.805368   -1.037609
H     -8.591275   -1.322266   -0.449915
H     -7.260991   -2.379901   -0.702622
H     -0.379403   -1.910116   -2.542491
H     -0.686908    0.000000    0.000000
