24

C     -0.378630   -0.241266   -0.206230
C     -1.642538   -0.928119    0.181408
C      0.775232   -1.095048    0.288977
C     -2.881613   -0.187677   -0.249098
C      2.111201   -0.477439   -0.058605
C      2.257393    0.870086    0.553054
N     -2.981683    1.131044    0.309390
N      2.270769   -0.417104   -1.485192
O      2.155361    1.054820    1.795351
O      2.511113    1.937039   -0.271932
H     -0.333763   -0.232596   -1.329131
H     -0.293579    0.793485    0.126119
H     -1.691864   -1.063596    1.282997
H     -1.682638   -1.930544   -0.277138
H      0.696940   -1.251269    1.366182
H      0.705588   -2.061725   -0.251970
H     -2.910665   -0.090970   -1.365962
H     -3.782113   -0.771432    0.023054
H      2.888166   -1.158815    0.353717
H     -2.123816    1.693925    0.120469
H     -3.799017    1.598226   -0.142662
H      3.289936   -0.340236   -1.685685
H      1.802475    0.424714   -1.845530
H      3.037746    2.744498    0.056821
