40

C      3.723181    1.335456    1.721838
C      3.372939    0.580557    0.452348
C      1.232580   -2.704943    0.058051
C     -0.181893   -2.744187   -0.533727
C      1.881375    0.315150    0.454428
C      2.008769   -1.711863   -0.778005
C     -2.130681   -1.200313   -0.825464
C     -0.456178    0.989213   -1.224497
C     -2.135520    2.447188   -0.029512
C     -0.699503   -1.325679   -0.326715
C     -1.742064    1.187741   -0.511078
C     -2.573357    0.109017   -0.324955
C      0.145324   -0.350748   -1.108163
C     -4.105328    1.512869    0.771542
N     -5.241089    1.623144    1.377626
N     -3.310261    2.592435    0.604262
N     -3.730872    0.281200    0.306020
N      1.524676   -0.377310   -0.712048
H      4.391733    2.201827    1.469116
H      4.208862    0.678395    2.462600
H      2.798699    1.757887    2.163884
H      3.991314   -0.329453    0.398550
H      3.667226    1.201710   -0.428797
H      1.721417   -3.693882   -0.012380
H      1.104992   -2.395661    1.104822
H     -0.837900   -3.438330   -0.014002
H     -0.120183   -2.940654   -1.618519
H      1.388821    1.271137    0.636995
H      1.710308   -0.275500    1.407432
H      1.848363   -2.051334   -1.846603
H      3.082531   -1.850205   -0.576933
H     -2.126567   -1.168312   -1.943392
H     -2.767858   -2.042576   -0.492271
H      0.213071    1.825261   -0.917591
H     -0.704355    1.262764   -2.300750
H     -1.464040    3.276770   -0.189514
H     -0.680013   -1.134448    0.767381
H      0.158951   -0.797381   -2.154294
H     -5.541958    2.554583    1.738190
H     -3.625510    3.528477    0.974125
