40

C     -0.397011   -3.041199    0.189510
C      2.080272   -0.277399   -3.368269
C      1.834404    2.468047    3.470391
C      2.200684    2.914105    2.238162
C      0.816688    1.562710    3.585069
C     -4.059015   -2.411364   -0.309308
C     -4.047580   -1.034156   -0.375867
C     -2.849094   -3.076198   -0.121761
C      1.532449    2.442586    1.096718
C      0.152991    1.095558    2.438416
C     -2.856108   -0.303201   -0.259671
C      0.670661    1.156861   -1.273096
C      1.886081    0.325830   -1.074772
C     -1.696257   -2.334125   -0.010972
C      0.511839    1.536492    1.192335
C     -1.665455   -0.958700   -0.075004
C     -0.175274    1.050032    0.008922
N      2.725427    0.391954   -2.256868
O     -0.494292   -0.315800    0.042586
H     -0.524096   -4.089227    0.505910
H      0.145167   -2.949823   -0.794218
H      0.211353   -2.478390    0.917813
H      1.389190    0.426925   -3.841313
H      2.913180   -0.573245   -4.070007
H      1.607026   -1.206213   -2.992643
H      2.337336    2.819433    4.368683
H      3.003213    3.627119    2.159265
H      0.535810    1.217890    4.561808
H     -4.969412   -2.985838   -0.397588
H     -4.965024   -0.495248   -0.520115
H     -2.857964   -4.159103   -0.069153
H      1.871214    2.840163    0.170790
H     -0.632827    0.385510    2.634331
H     -2.903473    0.773400   -0.318650
H      0.047139    0.650823   -2.062153
H      0.838443    2.178182   -1.581121
H      2.443123    0.563000   -0.152874
H      1.594579   -0.761834   -0.939074
H     -1.101269    1.619291   -0.193451
H      2.845887    1.405152   -2.522759
