35

C      5.140349    0.163049    0.107390
C      4.587844    1.221846    0.782910
C      4.381246   -0.774975   -0.543555
C      3.188631    1.319619    0.788620
C      2.231638   -1.618809   -1.190795
C      0.871874   -1.460465   -1.143452
C      0.396673    1.574012    0.839161
C     -0.979605    1.652804    0.833294
C      3.001415   -0.665484   -0.529301
C      2.413726    0.393098    0.144599
C      1.031620    0.544477    0.186409
C      0.272327   -0.417921   -0.480637
C     -1.716643    0.702620    0.175233
C     -1.110530   -0.338204   -0.486167
C     -3.206474    0.752065    0.145053
C     -3.728267   -0.629804    0.349810
C     -1.887776   -1.358309   -1.191882
C     -3.240986   -1.612962   -0.681442
O     -3.716106    1.569310    1.141921
O     -5.140417   -0.586903    0.328492
O     -2.221158   -2.463277   -0.272236
H      6.228167    0.099851    0.111418
H      5.180332    1.965752    1.298760
H      4.826352   -1.607797   -1.074462
H      2.771943    2.156696    1.323504
H      2.752341   -2.418549   -1.696694
H      0.260481   -2.172335   -1.638919
H      0.940631    2.325799    1.358224
H     -1.472336    2.475533    1.355538
H     -3.481813    1.143671   -0.872772
H     -3.456988   -0.969225    1.361561
H     -1.651664   -1.715355   -2.184183
H     -4.002402   -2.012908   -1.360122
H     -4.001232    2.464695    0.781804
H     -5.463190    0.298385    0.027100
