45

C      5.215804    0.092624    1.963809
C     -1.799166    0.173841   -3.603665
C     -3.361191    0.992460    3.029936
C      3.945256    0.587504    1.327698
C      3.103238   -0.532564   -1.564463
C      2.134085    0.530232   -1.097435
C     -5.167015    0.783880   -1.203500
C     -4.053563    0.582209   -1.991896
C      3.644258   -1.154370   -0.310792
C      0.844433   -1.030577    0.355318
C      1.872535    0.095497    0.328813
C     -5.029071    0.585202    0.153038
C     -2.845827    0.192620   -1.419277
C     -2.718807   -0.002884   -0.063204
C     -3.817434    0.193932    0.736179
C     -1.433425   -0.423043    0.519784
Br    -6.536811    0.851858    1.276053
N     -0.402462   -0.621279   -0.218424
N      3.109901   -0.460585    0.817690
O     -1.293366   -0.618958    1.888292
O     -1.696411   -0.020741   -2.194207
O     -3.707526    0.001412    2.103214
H      5.672983    0.960000    2.488902
H      4.981100   -0.655625    2.752644
H      5.964514   -0.266853    1.238618
H     -0.790409    0.129870   -4.058057
H     -2.234086    1.175724   -3.774986
H     -2.478921   -0.562195   -4.076752
H     -2.724633    1.789190    2.627202
H     -2.827301    0.482902    3.880357
H     -4.263431    1.445498    3.503007
H      3.375780    1.131626    2.110539
H      4.228029    1.341702    0.565548
H      3.896792   -0.073104   -2.173205
H      2.574470   -1.301745   -2.179124
H      1.197039    0.477422   -1.682459
H      2.557592    1.530948   -1.167544
H     -6.102254    1.086295   -1.657258
H     -4.100201    0.723287   -3.069470
H      3.306708   -2.215579   -0.247180
H      4.749531   -1.191708   -0.348312
H      0.802946   -1.401963    1.384998
H      1.206274   -1.889939   -0.259855
H      1.496187    0.942404    0.902902
H     -0.496141   -0.255270    2.406523
