35

C     -1.712126    3.416497   -0.592500
C     -3.736830   -1.627111    0.124600
C     -0.355080    3.635243   -0.564374
C     -2.887436   -2.686233    0.340302
C     -2.253824    2.156010   -0.416456
C     -3.255501   -0.334541   -0.062655
C      0.490443    2.577342   -0.356347
C     -1.533260   -2.478017    0.374122
C     -1.397136    1.115280   -0.210751
C     -1.906450   -0.148609   -0.025371
C     -0.011013    1.299713   -0.176277
C     -1.023222   -1.204778    0.191819
C      0.869434    0.247890    0.038614
C      0.345474   -0.988831    0.220792
C      2.327884    0.513279    0.033195
C      3.204700   -0.678705   -0.029253
C      1.218370   -2.153133    0.485729
C      2.611155   -1.999037    0.254045
O      2.708177    1.284224    1.132473
O      3.888551   -0.667966   -1.276696
O      1.813006   -2.681419   -0.656116
H     -2.398266    4.249527   -0.757351
H     -4.815128   -1.802636    0.099317
H      0.088035    4.624654   -0.701635
H     -3.243351   -3.689176    0.486428
H     -3.297502    2.096377   -0.455187
H     -3.984821    0.398421   -0.219269
H      1.565783    2.693695   -0.315676
H     -0.821199   -3.281055    0.535356
H      2.517173    1.126370   -0.895354
H      4.058720   -0.525447    0.705189
H      0.922926   -2.833799    1.334791
H      3.317666   -2.715294    0.772403
H      2.014281    1.136654    1.832473
H      4.670366   -0.075389   -1.250380
