35

C      1.755619    3.459155    0.244586
C      3.711031   -1.702434   -0.124898
C      0.416325    3.707401    0.221423
C      2.872776   -2.786555   -0.238549
C      2.223200    2.158572    0.146767
C      3.238894   -0.399785   -0.035288
C     -0.476441    2.663595    0.100324
C      1.518264   -2.540173   -0.261753
C      1.362256    1.092483    0.024666
C      1.871306   -0.197576   -0.062431
C     -0.014463    1.369655    0.002163
C      0.988235   -1.256170   -0.175448
C     -0.853730    0.286810   -0.113602
C     -0.365741   -1.032630   -0.201906
C     -2.299242    0.399269   -0.182911
C     -2.847243   -0.541740    0.884709
C     -1.335566   -2.149501   -0.291113
C     -2.590976   -1.948357    0.383295
O     -2.965437    1.530277   -0.340937
O     -4.233174   -0.388536    0.963494
O     -2.474669   -2.023453   -1.117589
H      2.492489    4.243282    0.337665
H      4.782562   -1.928809   -0.109073
H      0.017543    4.736269    0.297958
H      3.262060   -3.815070   -0.308775
H      3.277485    1.950636    0.164126
H      3.990711    0.329704    0.046915
H     -1.536690    2.836813    0.091888
H      0.895770   -3.412845   -0.352313
H     -2.544246   -0.182161   -1.155727
H     -2.331153   -0.351271    1.831074
H     -0.976349   -3.192453   -0.343468
H     -3.143178   -2.792406    0.788046
H     -3.146917    1.747107   -1.279470
H     -4.541311    0.130900    0.166151
