65

C      4.262214   -4.163463   -1.741079
C      2.915806    4.310716    1.751140
C      4.488253   -1.383412   -1.589524
C     -2.355347    2.521195   -0.450420
C      3.526016   -3.409424   -0.654203
C     -0.976068    2.325544   -2.391030
C      0.146440    2.916780   -2.056397
C     -2.136458   -0.291287    1.124515
C     -1.141304   -0.512529    0.057604
C      1.452153    3.628265   -0.126852
C      2.557930    1.972986    1.157901
C     -3.277800   -2.451915    0.879620
C     -5.523571   -1.928181    1.688060
C      1.877144    3.315441    1.271278
C      3.161037   -2.053277   -1.216601
C     -1.660703    1.520799   -1.333725
C      0.646378    2.751493   -0.698816
C     -4.644044   -1.960083    0.432769
C     -2.623260   -1.523983    1.840833
C     -0.620633    0.689511   -0.637510
C      1.573382    0.964545    0.610195
C     -4.887048   -0.999532    2.636535
C      0.295863    1.560854    0.162160
C      2.526996   -1.183878   -0.197225
O     -5.138015   -2.902340   -0.472089
O     -5.589682   -0.165053    3.250880
O      2.278101   -1.719517    0.932278
O     -3.527119   -1.059935    2.836623
O      2.186808    0.119594   -0.347978
H      3.742358   -4.066254   -2.735939
H      5.288216   -3.791049   -1.912442
H      4.371074   -5.242152   -1.485583
H      2.533771    4.918507    2.598751
H      3.868672    3.803931    2.004717
H      3.156291    4.968670    0.886032
H      4.322730   -0.311230   -1.877530
H      4.940259   -1.863149   -2.479064
H      5.174988   -1.349647   -0.715244
H     -3.450873    2.520099   -0.671678
H     -2.205238    2.405855    0.618509
H     -2.030326    3.582679   -0.674918
H      2.663387   -4.001130   -0.345605
H      4.261905   -3.230539    0.165256
H     -1.370339    2.429669   -3.392767
H      0.705990    3.535650   -2.780703
H     -3.068272    0.218803    0.790001
H     -1.716452    0.395436    1.916520
H     -0.299588   -1.085452    0.491991
H     -1.589455   -1.230730   -0.696311
H      1.774109    4.491651   -0.629339
H      3.408444    2.134931    0.440878
H      2.938729    1.681777    2.159116
H     -2.701432   -2.694796   -0.022272
H     -3.491629   -3.435256    1.388957
H     -5.548264   -2.928274    2.185003
H     -6.549496   -1.637388    1.409994
H      1.001281    3.279963    1.956078
H      2.572975   -2.131214   -2.153156
H     -2.387277    0.872641   -1.885888
H     -4.620422   -0.938670    0.050682
H     -1.808143   -2.071272    2.370724
H      0.029590    0.294390   -1.484140
H      1.380544    0.281294    1.492342
H     -0.277965    1.979159    1.013213
H     -4.813609   -2.676818   -1.388401
