45

C      5.002589   -0.071059   -0.267892
C     -2.739003   -2.455400   -2.464411
C     -3.127008    2.779695    1.211669
C     -1.553455   -2.000397   -2.989391
C     -1.959250    3.233139    0.646972
C     -3.069656   -2.113497   -1.162901
C     -3.305709    1.422927    1.346945
C     -0.669250   -1.201604   -2.249100
C     -0.940840    2.391164    0.202774
C     -1.297154   -1.466881    1.735718
C     -0.011425   -0.918432    1.182173
C      1.031215    0.253629   -0.754555
C      2.945547    0.163675    0.899251
C      2.244772    0.880257   -0.242873
C     -2.468540   -0.896687    0.976038
C     -2.228249   -1.341136   -0.428843
C     -2.324085    0.581686    0.919456
C     -1.037938   -0.894422   -0.979793
C     -1.124214    1.041388    0.342701
C     -0.190866   -0.028926   -0.030905
N      4.375957    0.507161    0.901708
O      2.339252    2.240735   -0.131781
H      6.053343   -0.353193    0.022885
H      5.072083    0.664752   -1.102514
H      4.449457   -0.946347   -0.662560
H     -3.418632   -3.073768   -3.043849
H     -3.900316    3.486207    1.547670
H     -1.256783   -2.247493   -4.009343
H     -1.816154    4.301281    0.538217
H     -4.002990   -2.448798   -0.692156
H     -4.213512    1.013874    1.787933
H      0.244054   -0.852690   -2.673324
H     -0.064715    2.760529   -0.248620
H     -1.343428   -2.579886    1.574049
H     -1.475010   -1.247502    2.804370
H      0.407954   -0.320309    2.044621
H      0.714129   -1.749184    1.000297
H      1.386187   -0.773006   -1.157472
H      0.705928    0.769737   -1.729050
H      2.527271    0.426695    1.889324
H      2.874850   -0.927165    0.781298
H      3.033360    0.680416   -1.105299
H     -3.438073   -1.224950    1.365728
H      4.765451   -0.018798    1.737819
H      2.802853    2.552585    0.667018
