45

C      2.435008   -0.638231    2.756751
C     -1.189969   -3.214345    0.977801
C     -2.706719    2.328314   -1.959533
C      2.277869    0.494959    1.822173
C      4.151852    0.630829   -0.303639
C      3.235565    1.791651   -0.702196
C      3.121707   -0.470836   -0.215428
C     -4.922963   -0.836697    0.290875
C      0.878991    1.309281   -1.392413
C      1.856285    1.397134   -0.261848
C     -4.081677   -1.943858    0.238922
C     -4.458844    0.424370    0.006514
C     -2.269490   -0.481631   -0.398524
C     -2.746802   -1.749492   -0.110025
C     -3.120782    0.601638   -0.340925
C     -0.875792   -0.220033   -0.765854
Br    -4.667558   -3.707461    0.620253
Br    -5.596376    1.961959    0.073078
N     -0.452995    0.958972   -1.029244
N      2.036206    0.145938    0.448612
O      0.033439   -1.261174   -0.839453
O     -1.903764   -2.826028   -0.167099
O     -2.643887    1.869944   -0.629182
H      1.928632   -0.478092    3.727782
H      3.522667   -0.778289    3.028377
H      2.104276   -1.623741    2.388170
H     -0.312122   -3.828331    0.656589
H     -1.811708   -3.829057    1.682094
H     -0.792115   -2.362619    1.565372
H     -3.661846    2.898262   -2.062757
H     -1.892219    3.042734   -2.197777
H     -2.701308    1.497073   -2.704618
H      3.137040    1.199545    1.931622
H      1.378095    1.087394    2.158433
H      4.669855    0.784729    0.638543
H      4.808330    0.399788   -1.172431
H      3.203959    1.927097   -1.802872
H      3.556698    2.743233   -0.196586
H      3.498727   -1.402234    0.217501
H      2.837648   -0.694916   -1.261479
H     -5.961769   -0.991952    0.562853
H      1.207834    0.671608   -2.232800
H      0.824758    2.351228   -1.827830
H      1.453514    2.168928    0.446443
H      0.611753   -1.347588   -1.695550
