64

C      8.874918    2.243928   -1.049679
C     -4.225950    2.890807    1.127988
C      2.381328   -0.886718    1.049322
C      2.668236   -1.233940   -1.242982
C      1.168387   -1.584346    0.991681
C      1.484034   -1.917431   -1.312646
C     -4.193966    1.518693    1.249768
C     -8.262711   -0.052882   -0.050252
C     -7.042436   -0.095130   -0.690651
C      5.423126    2.040482    0.595121
C      6.660260    0.413583   -0.840810
C      4.862843    0.713785    1.119845
C      5.227744    0.036998   -1.218929
C     -3.804053    2.698827   -1.188687
C     -1.467579   -3.109181    0.579463
C     -3.398307   -2.227318    1.902320
C     -5.023886   -1.495888   -0.438772
C     -7.104950   -1.641841    0.868012
C      7.684126    2.612008   -0.265710
C     -4.029377    3.509282   -0.107021
C      3.146926   -0.700955   -0.060219
C      0.678284   -2.117799   -0.170387
C     -2.165556   -1.887766    1.081266
C     -3.964682    0.696852    0.147577
C     -3.774484    1.338729   -1.054626
C     -3.952782   -0.760566    0.336428
Cl    -4.063367    5.234003   -0.293681
Cl    -3.467172    0.345868   -2.480805
N     -8.294064   -1.014801    0.914880
N     -6.347264   -1.091950   -0.097323
N      6.605187    1.692996   -0.177056
N      4.379206    0.007779   -0.031993
O      7.603956    3.734674    0.332220
O     -0.481409   -2.801162   -0.327393
O     -4.167274   -1.078506    1.684531
O     -2.732254   -1.263272   -0.035271
H      9.794793    2.728609   -0.624346
H      8.760271    2.569461   -2.082922
H      8.978919    1.129341   -1.015439
H     -4.400313    3.559804    1.956790
H      2.683035   -0.505994    2.003220
H      3.264432   -1.096736   -2.154340
H      0.599132   -1.734236    1.911385
H      1.120961   -2.332620   -2.258588
H     -4.352863    1.098299    2.230451
H     -9.082558    0.619290   -0.254431
H     -6.756596    0.561367   -1.497107
H      5.634005    2.749153    1.416086
H      4.707496    2.496499   -0.112012
H      7.045849   -0.397666   -0.216191
H      7.212701    0.489456   -1.801656
H      4.148728    0.872801    1.924154
H      5.743068    0.162176    1.513181
H      5.221614   -0.973056   -1.704264
H      4.874424    0.798603   -1.927751
H     -3.649683    3.143928   -2.149888
H     -2.226155   -3.759040    0.071780
H     -1.088502   -3.742138    1.425961
H     -3.081165   -2.326437    2.960051
H     -3.889728   -3.150935    1.600560
H     -4.881729   -1.482878   -1.513903
H     -4.894771   -2.579725   -0.136955
H     -6.839543   -2.474257    1.539149
H     -1.530857   -1.190909    1.618139
