26

C      1.081158   -0.414715    0.808567
C      1.420627    0.094151   -1.452797
C      2.303270   -1.080659    0.829498
C      2.644084   -0.570867   -1.443190
C     -1.752916   -0.021053   -1.030732
C     -1.195822    1.335024    0.894284
C      0.622979    0.181808   -0.334639
C     -0.676034    0.877212   -0.418709
C      3.087685   -1.165034   -0.286067
C     -2.049259   -1.198619   -0.228122
Cl     4.623262   -2.015516   -0.214987
N     -0.300690    2.206760    1.609571
O     -1.123748   -1.915500    0.252404
O     -3.348547   -1.645510    0.091402
H      0.491940   -0.360985    1.708257
H      1.140302    0.542729   -2.402652
H      2.590867   -1.517734    1.767511
H      3.284314   -0.650592   -2.320874
H     -2.682948    0.620655   -1.026855
H     -1.451423   -0.275142   -2.071114
H     -2.135325    1.932709    0.688556
H     -1.516046    0.485199    1.528274
H     -0.596579    1.751656   -1.122561
H     -0.273800    3.165055    1.232607
H     -0.690727    2.275030    2.593794
H     -3.496621   -2.636062    0.348574
