31

C     -2.631793   -0.716437    1.131584
C     -2.713919    0.673382   -0.880254
C      3.015884    1.346791    0.378375
C      1.548317    0.246414   -1.317181
C      0.071503    0.415849   -1.262174
C      1.248856   -0.164865    1.138467
C     -1.830378    0.163384    0.233232
C      2.212629    0.098424    0.005551
C     -0.640045   -0.568709   -0.393934
C      0.243875   -1.180952    0.648272
O      0.957651   -2.225886    0.058443
H     -2.286953   -1.763595    1.180378
H     -2.648595   -0.259361    2.142125
H     -3.704273   -0.766073    0.812296
H     -3.383288    1.473384   -0.489466
H     -2.082201    1.128169   -1.682101
H     -3.337101   -0.146688   -1.274343
H      2.291098    2.200590    0.333387
H      3.787220    1.513878   -0.408075
H      3.422165    1.255902    1.383868
H      1.819769   -0.570635   -2.047529
H      1.970128    1.177396   -1.797355
H     -0.168836    1.466336   -0.965238
H     -0.315694    0.315066   -2.315503
H      1.819066   -0.635461    1.967168
H      0.792348    0.757123    1.520417
H     -1.443747    1.079656    0.766501
H      2.914211   -0.763672   -0.052631
H     -1.077695   -1.389361   -0.989814
H     -0.281568   -1.588332    1.510144
H      0.431364   -2.571713   -0.692205
