61

C      2.150899    1.005653    2.548281
C      4.103155   -2.975012   -1.168339
C      3.420103    1.383734   -1.318178
C     -3.690915   -4.202324   -0.390365
C     -0.051649    5.243190    0.227550
C     -2.521092   -4.751021    0.076322
C      1.170803    4.828881    0.716758
C     -3.853501   -2.818963   -0.538414
C     -1.024252    4.295997   -0.042556
C     -1.466802   -3.928836    0.413093
C      1.431540    3.470562    0.939855
C      1.559186   -2.071859   -0.151474
C     -3.794288    2.637279   -0.924878
C     -2.801165   -2.025604   -0.200482
C     -0.726172    2.992850    0.189291
C     -2.775567    1.669193   -0.465997
C      2.892180   -1.441013    0.184686
C     -1.604500   -2.580036    0.276435
C      0.486431    2.519469    0.681358
C      0.651431   -1.842984    1.028174
C     -1.495883    1.872252   -0.004527
C     -2.579980   -0.655704   -0.205364
C     -3.363399    0.414940   -0.583498
C     -1.290721   -0.452717    0.259437
C     -0.751302    0.806686    0.362412
C      2.629752    0.060222    0.331020
C     -4.712448    0.574924   -1.099555
C      1.522587    0.327216    1.312491
N      3.827299   -1.591184   -0.913735
N     -4.937723    1.842290   -1.286599
N     -0.709130   -1.620225    0.546262
N      0.483390    1.201594    0.794151
O     -5.660627   -0.381265   -1.375394
O      2.377161    0.542237   -0.935149
O      0.968813   -0.832903    1.851304
H      3.208849    1.280907    2.373429
H      2.243021    0.253821    3.404160
H      1.520506    1.787696    2.968918
H      3.862188   -3.611924   -0.292108
H      3.524476   -3.367041   -2.051277
H      5.193664   -3.088729   -1.391683
H      4.407690    0.858692   -1.333643
H      3.528605    2.267548   -0.657958
H      3.275199    1.771299   -2.347438
H     -4.509679   -4.826455   -0.651927
H     -0.236520    6.311261    0.059891
H     -2.380444   -5.810466    0.196221
H      1.973652    5.541168    0.946149
H     -4.771790   -2.441556   -0.900791
H     -1.987346    4.583639   -0.424935
H     -0.524991   -4.347508    0.787594
H      2.386070    3.150443    1.303455
H      1.172982   -1.497434   -1.044370
H      1.637651   -3.135992   -0.387245
H     -4.103698    3.362302   -0.167910
H     -3.420283    3.114658   -1.861613
H      3.260220   -1.881668    1.122030
H      0.607931   -2.807452    1.576448
H      3.610897    0.471283    0.715174
H      3.321041   -1.228829   -1.774825
H     -6.663503   -0.227181   -1.300122
