43

C     -0.556590    2.172993    1.738609
C     -1.089808    3.041353   -0.379710
C      3.221688    0.083065    1.100278
C      3.607341   -1.066353    0.162220
C     -3.347810   -1.101332    0.702296
C     -2.220007   -0.308043    0.801544
C     -3.720683   -1.655968   -0.491507
C      2.133495    0.850139    0.378288
C      2.383723   -1.956960    0.092940
C     -1.853983   -0.639807   -1.505843
C     -1.448634   -0.058180   -0.293538
C     -2.965545   -1.422897   -1.608106
C      0.908908   -0.021698    0.332722
C      1.203094   -1.246731   -0.485111
C     -0.256858    0.776820   -0.244454
N     -0.338439    2.050982    0.347298
O     -3.347837   -1.988838   -2.820178
O      1.403445   -0.934829   -1.828628
Cl     0.686086    0.000000    0.000000
H     -0.013247    3.097180    2.141514
H     -1.605879    2.367548    2.052601
H     -0.118395    1.356812    2.350930
H     -0.459007    3.537650   -1.150653
H     -1.418508    3.825717    0.352050
H     -2.042726    2.634713   -0.815247
H      2.808004   -0.385078    2.025895
H      4.085968    0.710520    1.325633
H      4.437553   -1.651135    0.579746
H      3.867352   -0.683089   -0.831084
H     -3.954739   -1.293559    1.580233
H     -2.003506    0.076616    1.777803
H     -4.615553   -2.270356   -0.509223
H      2.498240    1.048659   -0.642097
H      1.970810    1.784177    0.951977
H      2.666796   -2.817862   -0.564978
H      2.171379   -2.320359    1.102350
H     -1.246144   -0.442581   -2.367185
H      0.688290   -0.353614    1.370539
H      0.330619   -1.947453   -0.404847
H      0.075069    0.970675   -1.330353
H     -4.158583   -2.562668   -2.904848
H      2.320705   -1.256230   -2.089875
H     -0.686086    0.000000    0.000000
