37

C     -4.996970    0.095509    0.513960
C     -4.464865   -1.080129    0.033619
C     -4.129731    1.128638    0.781172
C     -2.596069   -2.406930   -0.656720
C     -1.241076   -2.510250   -0.851738
C     -1.887635    2.028109    0.839990
C     -0.525913    1.921468    0.642998
C      0.997628   -1.626322   -0.798964
C     -3.089590   -1.210851   -0.172498
C     -2.750010    0.988986    0.571353
C     -0.352024   -1.472128   -0.585183
C      0.039650    0.759569    0.164182
C      1.832328   -0.568103   -0.519817
C     -2.216435   -0.181298    0.092814
C     -0.856360   -0.282430   -0.101868
C      1.397954    0.638378   -0.038316
C      3.291800   -0.782642   -0.772174
C      3.995778    0.024720    0.273723
C      2.285395    1.748428    0.257398
C      3.756061    1.476948    0.132606
O      3.630603   -0.406643   -2.059759
O      3.492855   -0.376134    1.525059
O      3.092901    2.087974   -0.884861
H     -6.064932    0.171741    0.665039
H     -5.123669   -1.924123   -0.190443
H     -4.497776    2.071537    1.159587
H     -3.285033   -3.210038   -0.862737
H     -0.843980   -3.442193   -1.230541
H     -2.276357    2.968914    1.219844
H      0.149826    2.738409    0.849757
H      1.378172   -2.546567   -1.171900
H      3.556262   -1.861323   -0.608374
H      5.078453   -0.210885    0.297788
H      2.075157    2.530135    0.993891
H      4.471933    2.123711    0.696948
H      2.994202    0.271444   -2.422733
H      3.681466    0.324370    2.216898
