39

C     -5.831745   -0.314974   -1.108390
C     -4.338272   -0.307259   -1.042906
C      6.473456   -0.355182   -0.575815
C      6.461751    0.553975    0.456098
C      5.288595   -0.865340   -1.017680
C      5.283633    0.956198    1.048004
C     -1.583808   -1.261174    0.939233
C     -1.688090    0.770639   -0.252217
C     -0.213325   -1.239014    0.897390
C     -0.316073    0.802295   -0.299521
C      2.693661   -0.873917   -0.722750
C     -2.326683   -0.273156    0.374325
C      4.079129   -0.492552   -0.455851
C      0.441418   -0.200744    0.273417
C     -3.829280   -0.279216    0.404347
C      4.107640    0.411885    0.566881
C      2.741354    0.655672    0.997643
C     -4.371368    0.893997    1.102189
N      1.883630   -0.134077    0.198829
O      2.347510    1.423402    1.912645
O     -5.102054    0.831690    2.131573
O     -4.081363    2.183372    0.626291
H     -6.191471    0.628489   -1.602122
H     -6.319996   -0.404869   -0.114190
H     -6.235139   -1.153308   -1.722854
H     -3.944706    0.600975   -1.575036
H     -3.866373   -1.162391   -1.578719
H      7.425036   -0.643009   -1.011124
H      7.413718    0.946490    0.788351
H      5.292510   -1.588304   -1.834711
H      5.282747    1.668859    1.855008
H     -2.066714   -2.100823    1.442063
H     -2.255332    1.571723   -0.713637
H      0.361495   -2.048894    1.362394
H      0.210141    1.631174   -0.796572
H      2.564292   -1.968724   -0.567029
H      2.439393   -0.646462   -1.789542
H     -4.184491   -1.190750    0.920166
H     -4.044828    2.973305    1.240224
