41

C     -0.183414   -0.854598    2.893002
C     -1.228538    1.168794    2.038409
C      2.613478   -0.746947   -1.516365
C      3.583329   -0.512544   -0.408954
C     -3.977300    0.197521   -0.581765
C     -2.884786   -0.234023    0.112168
C     -3.811617    0.812680   -1.820758
C      1.305692   -1.334937   -1.040885
C      3.113389    0.398320    0.667249
C     -1.463217    0.521320   -1.584509
C     -1.573739   -0.083286   -0.375451
C     -2.535913    0.976259   -2.327534
C      0.870554   -0.587127    0.171467
C      1.624261    0.705349    0.414490
C     -0.552608   -0.596368    0.498120
N     -0.747545   -0.125927    1.836212
O     -2.262101    1.574616   -3.547342
O      1.617215    1.624251   -0.578189
H     -0.723838   -0.682903    3.849578
H     -0.190224   -1.967622    2.732446
H      0.905929   -0.600943    2.995597
H     -1.109070    1.776247    1.098163
H     -2.271709    1.229967    2.415135
H     -0.600913    1.670588    2.833242
H      2.490304    0.145654   -2.154015
H      3.092300   -1.515451   -2.194780
H      4.486001   -0.023615   -0.879919
H      3.983553   -1.471198   -0.003491
H     -4.995242    0.099095   -0.241635
H     -3.088615   -0.707412    1.075332
H     -4.640757    1.168410   -2.406729
H      1.559459   -2.415419   -0.795461
H      0.592484   -1.428626   -1.860240
H      3.139476   -0.123513    1.645425
H      3.649157    1.372104    0.715088
H     -0.489820    0.653215   -1.977408
H      1.328019   -1.211230    1.024615
H      1.190031    1.146049    1.336455
H     -0.829029   -1.718104    0.572485
H     -2.235512    0.934003   -4.355378
H      1.250876    2.500644   -0.273869
