46

C      4.243166   -1.541082    1.379997
C      5.598052    0.572018    1.294386
C     -7.624039    1.064137    0.181339
C     -7.324400    0.209709   -0.847545
C     -6.821625    1.152194    1.308777
C     -1.408538   -0.766676   -1.795098
C     -0.515806   -0.068721   -0.983538
C     -6.190421   -0.574842   -0.739568
C     -5.698679    0.345953    1.367789
C     -2.625041   -1.177693   -1.308760
C     -2.090656   -0.216259    0.779943
C      5.120732    0.084883   -2.057453
C      0.037207    0.926905    1.191297
C     -0.869294    0.198441    0.297859
C     -5.355059   -0.531856    0.354608
C     -2.979328   -0.904625   -0.009177
C      4.412557   -0.410401   -0.884839
C      6.219553    0.698773   -2.291275
C      3.536041    0.479326   -0.137744
C      2.214621    0.102230    0.362694
C      4.687179   -0.324223    0.532545
Cl     6.638600    1.093628   -3.984024
Cl     7.385160    1.169493   -1.114003
O      1.819677   -1.083405    0.508185
O      1.331681    1.116983    0.701940
O     -4.209800   -1.329967    0.454256
H      3.789779   -2.285255    0.704402
H      3.480178   -1.234318    2.114006
H      5.136110   -1.985914    1.829412
H      6.608259    0.185538    1.457608
H      5.121195    0.622457    2.354757
H      5.514181    1.626215    0.980508
H     -8.519709    1.687807    0.102578
H     -7.964549    0.145906   -1.736454
H     -7.066033    1.830077    2.116881
H     -1.144089   -0.990969   -2.825498
H      0.405260    0.214645   -1.441331
H     -5.961505   -1.243554   -1.551670
H     -5.066256    0.417277    2.259518
H     -3.283207   -1.720688   -1.990890
H     -2.377245   -0.000878    1.814978
H      4.527275   -0.121746   -3.033324
H      0.066524    0.470550    2.221515
H     -0.400843    1.943621    1.355001
H      3.898254   -1.436301   -1.187757
H      3.704880    1.590610   -0.226065
