34

C      5.105720   -0.167508    0.952606
C      4.588849    0.626472    1.954499
C      4.319790   -0.724942   -0.032718
C      3.231859    0.856578    1.948609
C     -0.002936   -1.360190   -1.996636
C     -1.353998   -1.118726   -1.984984
C     -1.737897    1.073609    1.039758
C     -3.027726    1.307267    1.057779
C      2.143755   -1.044221   -1.020623
C      1.049384    0.531455    0.950802
C      2.939696   -0.491654   -0.039753
C      2.436199    0.301952    0.964888
C      0.777637   -0.799422   -1.007882
C     -1.148521    0.251404    0.013278
C     -1.907759   -0.312512   -0.974802
C      0.224528   -0.005059   -0.014350
C     -3.926836    0.746308    0.040397
C     -3.363115   -0.090655   -1.019053
O     -4.732905    1.790089   -0.489649
O     -4.001094   -1.363290   -1.019867
H      6.187569   -0.349234    0.959728
H      5.228337    1.060739    2.728784
H      4.703927   -1.339534   -0.812196
H      2.802632    1.477022    2.725337
H      0.416475   -1.986991   -2.784731
H     -2.002019   -1.536375   -2.737765
H     -1.152073    1.537427    1.842727
H     -3.456025    1.951620    1.870205
H      2.560987   -1.662143   -1.796662
H      0.706237    1.155312    1.753385
H     -4.680203    0.130392    0.643109
H     -3.618885    0.379163   -2.023207
H     -5.265778    2.127533    0.276462
H     -4.045812   -1.674326   -1.967475
