37

C      2.574261    1.282620    0.795759
C      4.809298    0.703151   -0.003535
C     -3.734564    1.302358   -0.960181
C     -4.956377   -0.419079    0.090777
C     -2.523169    0.752175   -0.552355
C     -3.792106   -0.995526    0.512745
C      1.930166   -1.578175   -0.670150
C     -0.103019   -0.941543    0.606216
C      3.426205    0.113301    0.412644
C     -4.947479    0.746859   -0.657854
C      0.525230   -1.097938   -0.724044
C     -2.550570   -0.400311    0.185990
N      2.992319   -0.709620   -0.595218
O     -6.155864    1.299248   -1.066444
O      0.248974   -0.225407   -1.725722
O     -1.464829   -1.031541    0.636505
Cl     0.692646    0.000000    0.000000
H      2.149388    1.171221    1.824843
H      1.736170    1.471848    0.110912
H      3.193105    2.242944    0.798923
H      4.591113    1.407426   -0.816475
H      5.286639    1.188327    0.853751
H      5.418501   -0.120920   -0.401238
H     -3.739524    2.224069   -1.556234
H     -5.929921   -0.855920    0.331874
H     -1.636052    1.268342   -0.817737
H     -3.823852   -1.902284    1.090088
H      2.006658   -2.384870    0.167214
H      2.098498   -2.283478   -1.577495
H      0.233926   -0.016633    1.138882
H      0.318238   -1.763878    1.289558
H      3.693438   -0.452267    1.378555
H     -0.053461   -2.091578   -1.133749
H      3.603396   -0.674542   -1.473698
H     -6.123648    2.151204   -1.613933
H      0.698912    0.620418   -1.777230
H     -0.692646    0.000000    0.000000
