44

C      3.568090    1.388028    0.012317
C      2.940497    0.200945    1.941554
C      4.617446    1.958306    0.738035
C      3.961852    0.741198    2.690040
C     -2.912437    0.259169    1.909901
C     -4.242119   -0.026122    2.148839
C      2.057653   -1.522943   -0.534911
C      2.755095   -1.355888   -1.854595
C     -3.242770   -0.307146   -0.348464
C      1.278582    0.376503   -2.501018
C     -0.624707    0.216656   -0.996331
C     -6.859119   -0.781762   -0.259316
C      2.717356    0.501224    0.608537
C      0.868601    0.574929   -1.087636
C      4.808384    1.635595    2.061776
C     -2.388631    0.120664    0.642076
C      1.585763   -0.180589   -0.050546
C     -5.099814   -0.453995    1.162202
C     -4.572733   -0.591837   -0.106375
F      5.834448    2.205018    2.738365
N      1.746433   -0.932311   -2.817339
O     -1.077130    0.385875    0.330670
O     -6.454767   -0.808450    1.107475
O     -5.629292   -1.032417   -0.917090
H      3.425046    1.651002   -1.006696
H      2.284636   -0.508218    2.473677
H      5.304575    2.666320    0.278302
H      4.132773    0.505036    3.728346
H     -2.249110    0.598522    2.712453
H     -4.644556    0.088647    3.162024
H      2.779264   -1.929659    0.213385
H      1.192879   -2.226222   -0.661107
H      3.512735   -0.556198   -1.799235
H      3.200702   -2.320896   -2.198685
H     -2.901928   -0.440487   -1.375596
H      0.378288    0.569816   -3.149986
H      2.025870    1.133215   -2.874199
H     -1.216888    0.775575   -1.736746
H     -0.775810   -0.869882   -1.244021
H     -7.618815   -1.550233   -0.483030
H     -7.169844    0.235444   -0.532102
H      0.879913    1.682495   -0.906055
H      0.845265   -0.441882    0.777047
H      0.978322   -1.633047   -2.912028
