40

C     -5.121416   -1.162644   -0.137176
C     -4.868531    0.182784   -0.266683
C     -4.085958   -2.037532   -0.011527
C     -3.327610    2.023653   -0.402360
C     -2.027728    2.469413   -0.403025
C     -1.786716   -2.477561    0.113385
C     -0.490412   -2.010383    0.110390
C      0.344021    1.972931   -0.269531
C     -3.588029    0.676135   -0.273161
C     -2.793978   -1.534149   -0.018637
C     -0.979926    1.585010   -0.275997
C     -0.182029   -0.679068   -0.015870
C      1.369263    1.047992   -0.138865
C     -2.531521   -0.193602   -0.147329
C     -1.222183    0.235896   -0.146035
C      1.144546   -0.293293   -0.009225
C      2.746587    1.585338   -0.144486
C      2.172042   -1.264540    0.125646
C      3.535801    0.726261    0.835671
C      3.556795   -0.691445    0.344048
O      2.795057    2.912403    0.268391
O      2.380111   -2.243629   -0.779788
O      4.852086    1.185054    0.793616
O      4.274906   -0.809993   -0.846434
H     -6.156742   -1.530648   -0.135110
H     -5.719504    0.863747   -0.366040
H     -4.270450   -3.090038    0.090238
H     -4.169672    2.722547   -0.503263
H     -1.828166    3.515785   -0.503422
H     -1.963852   -3.536247    0.216101
H      0.333685   -2.701546    0.211351
H      0.538825    3.033264   -0.371468
H      3.233493    1.490224   -1.123674
H      1.943610   -1.825603    1.096216
H      3.179843    0.797159    1.860724
H      4.089893   -1.314813    1.084696
H      2.173057    3.052905    1.024831
H      2.754633   -3.057079   -0.395579
H      4.948729    2.029764    0.298725
H      4.747440   -1.654450   -0.938077
