22

C     -1.157777   -1.207372    1.248261
C     -0.425470   -1.506201   -1.142320
C      1.924771    0.260903   -0.418823
C      0.655646    0.315850    0.371142
C      3.085757   -0.016342    0.165462
C     -0.575576    0.855605   -0.231469
C     -1.509702    1.705982    0.527267
C     -0.450633   -0.592420    0.038560
Cl     3.147632   -0.328308    1.907803
Cl     4.580823   -0.091340   -0.706373
O     -1.741344    1.475210    1.743036
O     -2.186208    2.791732   -0.016595
H     -2.228571   -1.336340    1.088850
H     -0.728657   -2.250103    1.323694
H     -0.874634   -0.705081    2.181500
H     -0.928695   -2.468929   -0.986094
H     -0.991445   -0.996592   -1.974585
H      0.573254   -1.706648   -1.541445
H      1.948310    0.442837   -1.486930
H      0.837313    0.595187    1.433693
H     -0.465979    1.176617   -1.299645
H     -2.488815    3.585754    0.543028
