37

C      5.028004    0.022262    0.170474
C      4.461355    1.090520   -0.489278
C      4.257018   -0.987029    0.680598
C      2.517701    2.230369   -1.310375
C      1.157467    2.279457   -1.457379
C      2.105288   -1.960117    1.049011
C      0.739620   -1.901251    0.895897
C     -1.002124    1.294308   -1.084166
C      3.100170    1.161079   -0.647549
C      2.872348   -0.930341    0.528213
C      0.373373    1.267119   -0.946540
C      0.160895   -0.840423    0.239963
C     -1.762319    0.276991   -0.569623
C      2.313188    0.140142   -0.132089
C      0.931220    0.201965   -0.288103
C     -1.229618   -0.805282    0.097262
C     -3.245411    0.309982   -0.731575
C     -3.811559   -0.000285    0.658037
C     -2.128326   -1.871378    0.636407
C     -3.441202   -1.374372    1.075806
O     -3.715584    1.508602   -1.195462
O     -5.202329    0.100021    0.638508
O     -3.245985   -2.235429   -0.123129
H      6.101131   -0.044150    0.301441
H      5.047814    1.902471   -0.902599
H      4.669860   -1.846739    1.207786
H      3.173268    3.009338   -1.698847
H      0.671326    3.117375   -1.979437
H      2.590120   -2.799388    1.570588
H      0.127804   -2.683054    1.282844
H     -1.428726    2.151196   -1.612244
H     -3.513425   -0.564447   -1.376849
H     -3.410952    0.800921    1.329725
H     -1.695007   -2.610124    1.326905
H     -4.016684   -1.848331    1.866466
H     -4.049224    1.419419   -2.139072
H     -5.500495    1.018602    0.512196
