27

C      3.093719    0.315343    0.833264
C     -2.316806    1.401123   -0.768443
C      2.782354    0.007240   -0.575053
C      1.475663   -0.669832   -0.825369
C      0.277697    0.096689   -0.380985
C     -2.177745   -0.127399    1.213119
C     -2.224771   -0.011751   -0.283287
C     -0.964735   -0.710987   -0.698725
C     -1.262136   -1.276110    1.431818
O     -0.876109   -1.627088    2.585710
O     -0.961895   -1.817991    0.189573
H      3.655939   -0.520960    1.344237
H      2.219365    0.536300    1.473694
H      3.768387    1.201869    0.926780
H     -1.470772    2.032500   -0.502113
H     -2.482048    1.368769   -1.865350
H     -3.221771    1.853139   -0.299095
H      2.783514    0.968698   -1.154696
H      3.598101   -0.599521   -1.019913
H      1.361984   -0.881577   -1.908261
H      1.452132   -1.675887   -0.325648
H      0.280819    1.070419   -0.931359
H      0.255153    0.265544    0.725858
H     -3.166285   -0.398652    1.638140
H     -1.811901    0.811459    1.636327
H     -3.076704   -0.577527   -0.701799
H     -0.991148   -1.033813   -1.758422
