40

C      3.590659   -2.563520    1.542234
C      3.278978    1.594035    0.122532
C     -1.667633    4.227201    0.021702
C     -0.365076    4.110409    0.428085
C     -2.399563    3.130620   -0.345757
C      0.269394    2.861135    0.481464
C     -0.915483   -3.093261   -0.612535
C     -2.396488   -2.763876   -0.628712
C     -2.633109    0.719530   -0.592714
C      1.090340   -2.126379    0.385198
C     -1.776733    1.883879   -0.294692
C     -0.126327   -1.925683   -0.181373
C     -0.453462    1.758649    0.112805
C     -1.853406   -0.434189   -1.095598
C      1.857534   -1.079587    0.806071
C     -0.613486   -0.642324   -0.340253
C      0.166319    0.432640    0.097535
C      1.393729    0.245224    0.660804
N     -2.674855   -1.577845   -1.335052
O      3.109432   -1.253279    1.387914
O      2.231247    1.248407    1.099474
H      4.603792   -2.570064    2.005810
H      3.608350   -3.124076    0.582340
H      2.868770   -3.123415    2.196689
H      2.872678    1.498783   -0.898512
H      3.616421    2.621820    0.285839
H      4.117937    0.886082    0.219155
H     -2.180357    5.188949   -0.028360
H      0.183778    5.012627    0.714620
H     -3.441575    3.198130   -0.673566
H      1.255937    2.891220    0.836143
H     -0.573340   -3.538201   -1.553687
H     -0.783859   -3.880341    0.171877
H     -2.889670   -3.613541   -1.159701
H     -2.828691   -2.741223    0.381189
H     -3.459786    1.021610   -1.277593
H     -3.111573    0.389979    0.371769
H      1.522457   -3.118496    0.536615
H     -1.467916   -0.078876   -2.136114
H     -3.025366   -1.672755   -2.293647
