46

C     -4.781680   -0.511351   -2.129810
C     -5.284205    1.929334   -1.685534
C      7.128734   -0.590586   -1.502782
C      7.444183   -1.273078   -0.348174
C      5.917502    0.060490   -1.603173
C      1.940971    1.944484    1.802379
C      0.877672    1.232236    1.282166
C      6.563191   -1.307195    0.695718
C      5.039643    0.023177   -0.555696
C      3.142698    1.287296    1.928870
C      2.193691   -0.744280    1.024040
C     -5.374246   -1.013835    0.673299
C     -0.188521   -0.825211    0.336600
C      0.984855   -0.082422    0.897048
C      5.356287   -0.656143    0.590619
C      3.257350   -0.039495    1.541999
C     -5.018923    0.371386    0.315948
C     -4.794361   -1.757176    1.577000
C     -3.641277    0.700591   -0.142458
C     -2.540010   -0.294118   -0.149854
C     -4.705890    0.618338   -1.141857
Cl    -5.340620   -3.383335    1.868686
Cl    -3.496923   -1.110027    2.541807
O     -2.745242   -1.476847   -0.579766
O     -1.292763    0.060104    0.308629
O      4.459831   -0.697894    1.668314
H     -3.774987   -0.754565   -2.558209
H     -5.171654   -1.424507   -1.635388
H     -5.427711   -0.289254   -2.993827
H     -6.367275    1.974215   -1.582419
H     -5.070604    1.959138   -2.790018
H     -4.744913    2.802299   -1.255527
H      7.855177   -0.589150   -2.304788
H      8.394486   -1.778822   -0.280577
H      5.693184    0.588983   -2.519173
H      1.834751    2.982834    2.100568
H     -0.073807    1.739771    1.177979
H      6.798060   -1.841194    1.612248
H      4.074508    0.524792   -0.597900
H      4.003213    1.809877    2.332880
H      2.300433   -1.788881    0.724036
H     -6.222816   -1.462225    0.111538
H     -0.396226   -1.744001    0.903729
H      0.062626   -1.070270   -0.713400
H     -5.561637    1.133463    0.892482
H     -3.306753    1.731379    0.161747
