42

C      3.987474   -1.240986   -0.568801
C      4.922949   -0.251751    0.009601
C     -2.711440    2.927866   -0.723899
C     -1.536729    2.183878   -0.613244
C     -3.956824    2.362867   -0.446966
C      2.554253   -1.201790   -0.161894
C      4.240410    0.820184    0.846791
C     -0.690774   -1.222951    0.295076
C     -1.618971    0.845745   -0.205887
C     -0.481194    0.063798   -0.078446
C     -4.019888    1.019786   -0.042901
C      2.044401    0.130992    0.272895
C     -1.951156   -1.766822    0.542465
C     -2.876051    0.308539    0.059358
C      0.826038    0.690567   -0.375969
C     -5.333179    0.534463    0.463855
C     -2.091919   -3.262605    0.807262
F     -5.670928   -0.749858    0.165353
F     -5.444130    0.879133    1.818490
F     -6.361212    1.324680   -0.159306
F     -3.311035   -3.470734    1.376412
F     -2.251664   -3.827048   -0.522208
F     -1.029841   -3.801791    1.380197
N      3.072714    1.178921    0.101561
N     -3.024361   -0.993235    0.421934
O      0.989592    0.919872   -1.748920
H      4.420597   -2.247193   -0.275300
H      4.111195   -1.271579   -1.675400
H      5.761026   -0.664297    0.584701
H      5.430938    0.333908   -0.825754
H     -2.670487    3.998123   -1.006134
H     -0.606596    2.665805   -0.863053
H     -4.906363    2.897849   -0.492593
H      2.496977   -1.931893    0.701276
H      1.968616   -1.546269   -1.024269
H      4.042678    0.456295    1.837051
H      4.918858    1.686761    0.892590
H      0.101941   -1.966714    0.429712
H      1.858316    0.141619    1.384413
H      0.742834    1.750738    0.021851
H      3.292513    1.250565   -0.882720
H      0.760422    0.044565   -2.236404
