20

C      0.244239    0.598945    0.807522
C     -1.209134    0.612071    0.372657
C     -1.766352   -0.744246    0.220697
C      1.702085    0.456837   -1.206598
C      2.120672   -1.702727   -1.119707
N     -1.998341    1.309396    1.366650
N      2.350894   -0.553124   -1.805611
N      1.078873   -0.091875   -0.154460
O     -2.753057   -1.128436    0.885267
O     -1.218660   -1.664447   -0.672749
O      1.685927    1.775773   -1.597802
O      2.570029   -2.852077   -1.393376
O      1.339284   -1.356213   -0.125248
H      0.570435    1.634520    0.967125
H      0.315276    0.063475    1.787644
H     -1.300485    1.173347   -0.576774
H     -1.364781    1.910255    1.909126
H     -2.450371    0.618856    1.988379
H     -1.473478   -2.626394   -0.651721
H      1.556946    2.566065   -1.001021
