29

C     -1.176150    2.300388   -0.450768
C      3.582308    1.574012    0.169405
C     -1.980152   -1.910525    0.121768
C     -2.997868   -0.871529   -0.183282
C      0.504057   -2.180946    0.241404
C      0.929289    0.543684    0.112194
C     -1.536530    0.917839   -0.013501
C     -0.609132   -1.336626    0.148491
C     -0.361610    0.017187    0.085811
C      1.777950   -1.654416    0.267053
C      2.013913   -0.297191    0.203720
N     -2.481693    0.263537   -0.900562
O      2.885359   -2.501425    0.359868
O      3.318798    0.166962    0.234079
H     -2.119559    2.875613   -0.553831
H     -0.605219    2.778991    0.361125
H     -0.607744    2.301755   -1.409255
H      2.882298    2.126451    0.835922
H      3.380807    1.913852   -0.864486
H      4.639593    1.788731    0.406584
H     -2.234904   -2.423907    1.069890
H     -1.984127   -2.653655   -0.718613
H     -3.410196   -0.479499    0.782616
H     -3.811097   -1.319176   -0.809845
H      0.351431   -3.238449    0.292059
H      1.065530    1.622400    0.059608
H     -1.997057    0.974400    0.993338
H     -3.242118    0.870487   -1.222556
H      3.823822   -2.168945    0.381765
