20

C     -0.074120    0.666375    1.123154
C     -1.388297    0.495053    0.430072
C     -1.626490   -0.878725   -0.012039
C      1.708936   -0.833137    0.259374
C      2.751690    0.606904   -0.991991
N     -1.385898    1.368870   -0.749503
N      2.750071   -0.663920   -0.582884
N      1.081412    0.349111    0.354670
O     -1.712916   -1.803833    0.835608
O     -1.769232   -1.248019   -1.349621
O      1.359136   -2.012863    0.903361
O      3.553964    1.170396   -1.779972
O      1.735434    1.198983   -0.412970
H      0.021995    1.703706    1.504712
H     -0.102238    0.014672    2.037687
H     -2.175421    0.877655    1.110171
H     -0.866510    2.259636   -0.543117
H     -2.404592    1.568302   -0.954550
H     -2.323766   -2.070530   -1.625733
H      0.866842   -2.768635    0.443570
