57

C      4.184172    0.547380   -0.413854
C      5.291119   -1.588171   -0.777911
C     -4.796046    1.537977   -2.150760
C     -3.611333    1.253174   -2.765925
C     -1.494026   -1.316216    3.214250
C     -4.842067    1.812167   -0.818844
C     -2.244458   -0.170423    3.227013
C     -2.447150    1.251998   -1.985128
C     -0.648908   -1.552874    2.177118
C     -4.045072    2.138907    1.349669
C     -3.036663    1.918977    2.402434
C      2.288789   -1.482948   -1.700665
C      1.420799   -0.282430   -1.992676
C      1.783649   -1.047258    0.650201
C      0.025138    1.211658   -0.840671
C      4.149609   -0.932356   -0.091480
C     -3.670450    1.808499   -0.045934
C     -2.143210    0.735458    2.195999
C     -2.470142    1.522837   -0.655622
C     -0.542279   -0.622324    1.113882
C     -1.154216    1.461080   -0.025880
C      0.400449   -0.984610    0.047112
C     -1.287636    0.517465    1.124658
C      2.816327   -1.554788   -0.317275
N      0.300347   -0.176935   -1.109413
O      2.966180   -2.936543   -0.028459
Cl     0.683879    0.000000    0.000000
H      5.108724    1.025250    0.011662
H      3.273994    1.082992   -0.119248
H      4.290311    0.666545   -1.516139
H      5.477283   -1.101955   -1.780501
H      6.233702   -1.380821   -0.204209
H      5.227089   -2.683427   -0.860346
H     -5.692885    1.530937   -2.791878
H     -3.566019    1.034587   -3.821827
H     -1.555341   -2.059883    4.027975
H     -5.771960    2.033545   -0.346312
H     -2.909487    0.009075    4.049648
H     -1.561406    1.019802   -2.512212
H     -0.067149   -2.463960    2.187892
H     -4.936792    1.509500    1.617512
H     -4.432812    3.185096    1.328814
H     -2.333046    2.804082    2.388553
H     -3.441307    1.907394    3.432409
H      1.633965   -2.369003   -1.868564
H      3.064766   -1.533461   -2.490522
H      0.989957   -0.474443   -3.021652
H      1.958293    0.658324   -2.075399
H      1.700986   -1.679300    1.559588
H      2.004700   -0.019708    1.029476
H      0.073546    1.808531   -1.736950
H      0.924839    1.551769   -0.229200
H      4.357921   -0.986924    1.019343
H     -1.013668    2.480651    0.468621
H      0.164812   -2.045929   -0.264914
H      3.604063   -3.052021    0.736540
H     -0.683879    0.000000    0.000000
