65

C      1.675568   -0.928757   -1.131782
C     -1.296102   -1.330164   -0.069176
C     -2.580569   -1.195319   -0.567912
C     -1.339235    0.877497    0.743694
C      0.728394   -0.470939    1.120749
C     -0.649839   -0.307187    0.592518
C     -3.242539   -0.007276   -0.403745
C     -2.634613    1.024714    0.244945
C      3.106064   -0.430690    0.742499
C      1.780799   -0.079832    0.114902
N      1.812700    1.325140   -0.154662
O     -4.542618    0.095838   -0.921121
O     -3.334408    2.209790    0.391815
O      3.254570   -1.642384    1.048896
O      4.089827    0.497135    0.969112
C     -1.452458   -1.601212   -0.090299
C      1.091967    1.410142    0.691886
C      2.421116    1.284686    1.119183
C      1.414085   -0.339024   -0.856830
C     -0.794406    0.729273   -0.740267
C      0.583295    0.601112   -0.295530
C      3.232615    0.348741    0.553958
C      2.745341   -0.468693   -0.432717
C     -3.110501    0.091907   -0.563325
C     -1.774228   -0.129413    0.019939
N     -1.817770    0.200054    1.422363
O      4.548830    0.240398    0.992369
O      3.595708   -1.412486   -0.989466
O     -3.331474   -0.124926   -1.777379
O     -4.145551    0.545067    0.227264
O     -0.007531    0.380897   -0.000000
O     -0.002092    0.370705   -0.000000
O     -0.002011    0.379782   -0.000000
H      1.684836   -1.987924   -0.804801
H      2.577130   -0.717721   -1.756558
H      0.781497   -0.657426   -1.715439
H     -0.795677   -2.261463   -0.205772
H     -3.074974   -2.013335   -1.087446
H     -0.910483    1.729478    1.248068
H      0.894046   -1.539802    1.392347
H      0.830396    0.108964    2.037733
H      1.392817    1.908540    0.601127
H      2.752836    1.673176   -0.445791
H     -5.024367    0.978444   -0.794856
H     -2.891835    2.964688    0.865398
H      4.955779    0.176816    1.396741
H     -0.701627   -1.934739    0.634272
H     -1.219915   -1.907430   -1.140105
H     -2.403522   -2.143912    0.157005
H      0.510233    2.173124    1.185543
H      2.797171    1.932260    1.896718
H      1.107584   -1.020061   -1.637870
H     -1.184170    1.778345   -0.674058
H     -0.931619    0.457643   -1.828388
H     -2.481989   -0.479121    1.871114
H     -2.257753    1.144635    1.504056
H      5.177013   -0.429586    0.607232
H      3.315139   -2.041229   -1.709538
H     -4.933114    1.094445   -0.147132
H     -0.806462   -0.193130   -0.000000
H      0.813993   -0.187767    0.000000
H      0.818859   -0.184659    0.000000
H     -0.816766   -0.186046   -0.000000
H     -0.812180   -0.190620   -0.000000
H      0.814191   -0.189162    0.000000
