107

C      5.129011   -0.465090   -0.116209
C      5.151050    1.856658   -0.956721
C      5.192392    1.434245    1.429522
C     -5.392524    0.806070   -1.112948
C     -4.305554    1.656346   -0.493583
C     -3.779911   -2.818176    1.297582
C     -2.494272   -2.966817    1.747622
C     -4.698178   -0.245326   -1.949169
C     -2.976318    1.092463   -0.938373
C     -4.040480   -1.950967    0.245310
C     -1.461643   -2.249657    1.148651
C      2.583631    0.054109    1.062437
C      0.593650   -0.545201   -0.335348
C     -3.276191   -0.288740   -1.493026
C      1.073388    0.041268    0.949360
C     -3.049336   -1.233679   -0.362319
C     -1.734286   -1.397167    0.111842
C      4.615333    0.949958    0.148188
N      3.185632    0.894229    0.081395
O      0.567678    1.358061    1.120984
O     -0.766397   -0.684200   -0.499502
C      4.923335   -0.469517   -1.083741
C      4.823263    1.562377    0.299335
C      3.785036   -0.497597    1.125318
C     -5.400169   -0.046413   -0.947888
C     -4.422532   -0.456386   -2.053906
C     -1.921203   -1.731854    3.136637
C     -0.561363   -1.571895    2.980141
C     -4.705341   -0.381142    0.358632
C     -3.238867   -1.086870   -1.303881
C     -2.789756   -1.294837    2.143505
C     -0.087007   -0.983730    1.845913
C      1.981347    1.603418   -0.184740
C     -0.032278    0.564158   -1.285357
C     -3.231453   -0.232698   -0.059341
C      0.782496    1.854285   -1.061623
C     -2.336830   -0.703240    0.999672
C     -0.961859   -0.534123    0.826190
C      4.042880    0.338154   -0.120890
N      2.846915    0.660173   -0.832791
O      1.214167    2.364865   -2.306416
O     -0.498054    0.013923   -0.227488
O      1.089655   -0.738156   -0.417520
O     -1.536179   -0.231493    0.226974
O     -0.104754    1.392931   -1.181416
O      0.345316    1.223932    1.184938
S     -0.030807    0.435569   -0.036663
H      5.207195   -1.030918    0.850032
H      4.461713   -1.030361   -0.775703
H      6.117627   -0.419823   -0.590888
H      5.709272    2.709290   -0.555534
H      4.313025    2.268604   -1.559358
H      5.803226    1.276332   -1.639484
H      6.214364    0.983905    1.600454
H      5.404460    2.542726    1.376212
H      4.626977    1.239405    2.336714
H     -6.049136    0.329133   -0.351228
H     -6.042995    1.472576   -1.714625
H     -4.441488    1.581979    0.610694
H     -4.393183    2.718159   -0.786908
H     -4.555719   -3.390987    1.786660
H     -2.251951   -3.645825    2.579795
H     -5.230156   -1.190312   -1.982074
H     -4.683521    0.172673   -2.998057
H     -2.326770    1.047743   -0.041700
H     -2.513903    1.760116   -1.667627
H     -5.055706   -1.856828   -0.082084
H     -0.454215   -2.433004    1.549828
H      2.913243   -0.987909    0.868499
H      2.809984    0.381778    2.091327
H      1.091001   -1.542484   -0.504005
H      1.008059    0.101417   -1.177694
H     -2.544713   -0.476848   -2.289854
H      0.705932   -0.508838    1.818542
H      2.926589    0.651579   -0.898037
H      1.114114    1.978335    0.602119
H      4.521751   -0.470306   -2.108991
H      5.947111   -0.027684   -1.136042
H      5.013255   -1.515088   -0.741926
H      5.726973    1.202340    0.855201
H      4.268001    2.193663    1.008205
H      5.182553    2.154492   -0.568604
H      4.783774   -0.923412    1.414301
H      3.158724   -1.375819    0.904719
H      3.424552    0.115140    1.971917
H     -6.361858   -0.590867   -1.054651
H     -5.538061    1.054585   -0.949187
H     -4.063986    0.471844   -2.569898
H     -4.887643   -1.161222   -2.753440
H     -2.250978   -2.196958    4.040045
H      0.152570   -1.906764    3.747844
H     -4.974851    0.277628    1.183289
H     -4.916357   -1.470620    0.565282
H     -3.552015   -2.121809   -1.076761
H     -2.374712   -0.983706   -1.949786
H     -3.858911   -1.442181    2.310298
H      0.980721   -0.869529    1.743357
H      2.508739    2.559870    0.032937
H      1.663852    1.209563    0.791980
H      0.627565   -0.130523   -1.931083
H     -0.799742    0.882393   -2.075972
H     -3.108657    0.819780   -0.341492
H      0.155587    2.634568   -0.604156
H      3.127934    1.007167   -1.787681
H      1.231383    1.632405   -2.985511
H      1.741181   -0.917941    0.297550
H     -1.504413   -1.164842   -0.073863
