33

C     -2.609736   -1.956265   -0.667418
C      0.992141    0.847747   -1.294085
C      2.030163    1.699199   -0.978677
C      1.553201   -0.441701    0.616564
C     -0.329642   -1.163208   -0.786268
C      0.753133   -0.232861   -0.486884
C      2.838960    1.511009    0.114136
C      2.605089    0.426804    0.930600
C     -2.242532    0.415561   -0.776369
C     -1.662859   -0.833178   -0.208596
N     -0.908672    0.164881    1.792072
N     -1.691045   -0.808535    1.220462
O      3.886494    2.406386    0.396572
O      3.416669    0.239525    2.025625
O     -2.682645    1.330256   -0.033414
O     -2.328007    0.636183   -2.142499
O     -0.001081    0.403403   -0.000000
H     -2.234648   -2.873999   -0.170151
H     -3.645110   -1.710924   -0.431491
H     -2.422600   -2.095103   -1.760223
H      0.395809    1.072406   -2.185261
H      2.227377    2.566595   -1.620602
H      1.435819   -1.269405    1.305376
H     -0.062927   -2.192733   -0.426470
H     -0.423875   -1.268881   -1.892280
H     -1.353836    1.105453    1.869888
H     -0.451795   -0.134074    2.684608
H     -2.665605   -0.710376    1.576206
H      4.458496    2.230706    1.211829
H      3.332280   -0.513617    2.680210
H     -2.210098    1.552149   -2.563462
H     -0.792474   -0.202173   -0.000000
H      0.793555   -0.201230    0.000000
