59

C     -3.384165   -1.095214   -1.663144
C      3.156144   -1.538807    0.512445
C     -1.587442   -4.413585    0.408671
C      3.291976    1.117567   -0.363880
C      3.596476   -0.556006   -1.977071
C     -2.488849   -0.089699   -0.921435
C     -1.698487    1.213792    4.197581
C     -0.231082    3.649261   -2.306332
C     -0.563529    1.797276    3.663033
C     -2.390221    0.299827    3.433373
C     -0.619216    3.781207   -0.994805
C      0.125702    2.408176   -2.761149
C     -0.178560    1.434625    2.385825
C     -1.979569   -0.055304    2.134854
C     -0.647522    2.676908   -0.150384
C      0.092713    1.327195   -1.915993
C      0.981900   -0.429362    0.643783
C      1.965899   -0.928016   -0.284745
C     -1.213167   -3.219804   -0.371958
C     -0.865611    0.519057    1.610262
C     -0.295219    1.407298   -0.563389
C     -1.217890   -0.766005   -0.493725
C     -0.310076    0.189084    0.264019
N      2.646887    0.092139   -1.093680
O     -0.632407   -3.268193   -1.480668
O     -1.510732   -1.960384    0.130118
Cl     0.691725    0.000000    0.000000
H     -3.847936   -1.801552   -0.980865
H     -2.828312   -1.513062   -2.500565
H     -4.199061   -0.466005   -2.099024
H      2.695294   -1.904145    1.452638
H      3.569894   -2.408835   -0.002128
H      3.873910   -0.767673    0.773777
H     -1.145234   -4.278318    1.424025
H     -2.670842   -4.447424    0.529522
H     -1.166413   -5.349962   -0.015349
H      4.413010    1.042764   -0.526118
H      3.172552    1.132937    0.718395
H      3.075038    2.152511   -0.776665
H      4.412588   -1.067455   -1.386908
H      4.121176    0.236191   -2.549069
H      3.113290   -1.272038   -2.676071
H     -2.274812    0.659910   -1.750301
H     -3.070287    0.351585   -0.131726
H     -2.032182    1.477972    5.205118
H     -0.211383    4.505169   -2.952826
H      0.005286    2.519330    4.234123
H     -3.268551   -0.132879    3.884372
H     -0.902645    4.744270   -0.619446
H      0.428511    2.330310   -3.803485
H      0.741987    1.951091    2.052901
H     -2.605356   -0.795015    1.677214
H     -0.998376    2.883937    0.851147
H      0.361194    0.388903   -2.365833
H      1.495116    0.279123    1.358764
H      0.715775   -1.285228    1.359077
H      1.689427   -1.723014   -0.977028
H     -0.706609   -1.036433   -1.449272
H     -0.691725    0.000000    0.000000
