33

C     -2.750155   -1.868909    0.630007
C      1.203696   -0.379350   -1.365555
C      2.280460    0.442804   -1.641013
C      1.401201    0.094947    0.915966
C     -0.401065   -1.437874    0.254395
C      0.736390   -0.574801   -0.083405
C      2.940705    1.114119   -0.604824
C      2.494721    0.934703    0.670831
C     -1.881543    0.271723    1.311974
C     -1.742777   -0.766597    0.256118
N     -1.425070    0.775453   -1.514883
N     -2.148998   -0.226921   -0.971364
O      4.023133    1.936868   -0.908892
O      3.098310    1.567296    1.754454
O     -2.295897    1.436951    1.078127
O     -1.550859   -0.013525    2.629336
O     -0.004040    0.397704   -0.000000
H     -2.610967   -2.110957    1.696413
H     -3.801251   -1.479140    0.524171
H     -2.599260   -2.769491   -0.008241
H      0.723725   -0.878568   -2.189550
H      2.632942    0.581592   -2.670648
H      1.098286   -0.007622    1.933824
H     -0.443862   -2.248491   -0.500866
H     -0.285560   -1.948001    1.237306
H     -1.918826    1.239106   -2.300784
H     -0.983648    1.452145   -0.854466
H     -3.052853   -0.458414   -1.345738
H      4.519393    2.433013   -0.190828
H      3.878121    2.180997    1.686776
H     -1.138493    0.706944    3.239467
H     -0.794950   -0.200413   -0.000000
H      0.798991   -0.197292    0.000000
