65

C      1.637315    0.530368    1.379151
C     -0.858538   -1.250121    0.968122
C     -2.193672   -1.167705    1.345333
C     -1.421039   -0.057177   -1.042984
C      0.950946   -0.776652   -0.639589
C     -0.478197   -0.689861   -0.233020
C     -3.135170   -0.543635    0.550975
C     -2.740720    0.016513   -0.655579
C      3.123710    0.389826   -0.515524
C      1.696928    0.440300   -0.111141
N      1.101514    1.605813   -0.754551
O     -4.452703   -0.495279    0.984994
O     -3.669756    0.636404   -1.447082
O      3.671273    1.224273   -1.276373
O      3.901972   -0.645169   -0.021463
C     -3.243805   -0.714001    0.158348
C      1.094805    0.229269    1.210768
C      2.397191    0.679231    1.157656
C      1.331341   -0.893241   -0.845328
C     -0.849765   -0.962973    0.401689
C      0.533269   -0.562360    0.217969
C      3.184512    0.344275    0.094107
C      2.634769   -0.451674   -0.913293
C     -1.937776    1.261101    0.504214
C     -1.888926   -0.061401   -0.170969
N     -1.798105    0.119432   -1.589982
O      4.494996    0.792499    0.032958
O      3.402053   -0.818095   -2.017636
O     -1.866242    2.303213   -0.195586
O     -2.061339    1.370624    1.892756
O     -0.000643    0.393064   -0.000000
O     -0.008399    0.372520   -0.000000
O     -0.002949    0.370234   -0.000000
H      0.665804    0.880998    1.768102
H      2.400488    1.295155    1.690896
H      1.904048   -0.442518    1.813017
H     -0.104666   -1.733733    1.574014
H     -2.478764   -1.609237    2.286123
H     -1.115714    0.379580   -1.982884
H      1.007443   -0.848315   -1.732258
H      1.391607   -1.700286   -0.205896
H      1.318939    2.455253   -0.223645
H      1.558956    1.668405   -1.702937
H     -5.160573   -0.037732    0.409593
H     -3.425189    1.051708   -2.322608
H      4.903758   -0.577179    0.097213
H     -3.431007   -0.498206    1.223695
H     -3.146806   -1.820169    0.015516
H     -4.038339   -0.298038   -0.476013
H      0.538829    0.540523    2.092171
H      2.821059    1.301886    1.949657
H      0.919608   -1.501872   -1.621030
H     -0.983232   -1.976334   -0.038027
H     -1.073699   -1.081535    1.490015
H     -2.247709    1.011913   -1.895463
H     -2.282040   -0.645563   -2.111123
H      5.144424    0.604642   -0.694035
H      4.350279   -0.556798   -2.168930
H     -1.998347    2.283654    2.305840
H      0.790535   -0.196301    0.000000
H     -0.789892   -0.196763   -0.000000
H      0.821908   -0.183409    0.000000
H     -0.813509   -0.189110   -0.000000
H     -0.823978   -0.186125   -0.000000
H      0.826926   -0.184109    0.000000
