55

C      2.159205   -4.002453    0.604293
C     -6.154427    0.334135    0.354463
C     -6.001932   -1.360435   -1.251025
C      7.837853   -0.700498   -0.677528
C     -2.698690    3.986168    0.436584
C     -1.501920    4.635326    0.664612
C     -2.759111    2.590932    0.418447
C     -0.330691    3.923837    0.881380
C      3.702680    0.402311   -1.083450
C      3.367318   -0.501863    1.057855
C      5.045508    0.056785   -0.981463
C      4.675902   -0.854398    1.190535
C     -3.976867   -0.205321   -0.583987
C     -3.248024    0.018461    0.687848
C      1.469220   -2.910779   -0.147570
C      2.817703    0.128146   -0.051664
C      5.544132   -0.565861    0.137250
C     -1.621210    1.870820    0.627735
C     -0.425994    2.560097    0.856446
C      0.465610   -0.643272   -0.096181
C      1.379962    0.497364   -0.107262
C     -0.863077   -0.529324    0.464371
N     -5.312569   -0.631025   -0.244584
N     -1.871982    0.469311    0.578035
O      1.204946   -3.033361   -1.345845
O     -1.270561   -1.621838    1.022487
O      6.862442   -0.941183    0.318706
O      1.130621   -1.760886    0.509697
S      1.140025    1.736593    1.169683
H      3.006256   -4.407548    0.020823
H      1.422365   -4.844919    0.762526
H      2.541483   -3.659750    1.579266
H     -7.158992   -0.141442    0.495009
H     -6.279612    1.270979   -0.221607
H     -5.840725    0.601123    1.398770
H     -6.346129   -0.648195   -2.039160
H     -5.348105   -2.163963   -1.659343
H     -6.910957   -1.814315   -0.751844
H      8.812719   -1.171068   -0.353519
H      7.516521   -1.070394   -1.653826
H      8.081517    0.401002   -0.699865
H     -3.636690    4.514886    0.263942
H     -1.506346    5.714600    0.669468
H     -3.679495    2.073872    0.255519
H      0.607959    4.392785    1.060373
H      3.344586    0.882521   -1.962746
H      2.671302   -0.720856    1.883828
H      5.732772    0.263577   -1.770704
H      5.013083   -1.341687    2.094153
H     -3.893641    0.515771   -1.385588
H     -3.534953   -1.153711   -1.068583
H     -3.810591    0.526871    1.499411
H     -3.147709   -1.019101    1.147847
H      0.322351   -0.999114   -1.168320
H      1.254960    1.050285   -1.087043
