28

C     -1.625015    0.461062   -1.295287
C      0.918338   -1.022490   -1.175986
C      2.221531   -0.742934   -1.539280
C      1.325654   -0.174432    1.030629
C     -0.928699   -1.033688    0.512585
C      0.477897   -0.741608    0.091685
C      3.083557   -0.177779   -0.619826
C      2.624530    0.101482    0.660259
C     -3.166156    0.016814    0.496905
C     -1.739027    0.226861    0.194961
N     -1.231576    1.280699    0.958958
O      4.387424    0.108169   -0.964246
O      3.539378    0.671186    1.544310
O     -3.791428   -0.885269   -0.091664
O     -3.799805    0.809055    1.418960
H     -0.645541    0.835187   -1.592272
H     -2.428734    1.208416   -1.546215
H     -1.914269   -0.466589   -1.801372
H      0.261959   -1.468427   -1.923209
H      2.585422   -0.960914   -2.543687
H      0.990489    0.054981    2.043098
H     -0.963492   -1.190671    1.612264
H     -1.337894   -1.895317   -0.032507
H     -1.577494    1.437144    1.892583
H     -0.446493    1.817717    0.616724
H      4.718664   -0.095590   -1.894839
H      3.275044    0.901403    2.493193
H     -4.814268    0.925533    1.453279
