50

C     -5.258824   -0.231806    0.036937
C     -3.393189   -1.114886   -1.270253
C     -4.949847    0.444717   -2.265723
C      5.445647    1.371580    0.583246
C      4.365233    1.874203    1.509856
C      2.601320   -3.355265   -0.380991
C      1.239371   -3.263476   -0.530894
C      4.968862   -0.023092    0.241710
C      3.087678    1.165018    1.100255
C      3.321744   -2.197642   -0.206429
C      0.620941   -2.004612   -0.502398
C     -2.722436    1.387174    0.542633
C     -0.449302    0.944887   -0.385778
C      3.495872    0.247534    0.001127
C     -1.466575    0.548541    0.654552
C      2.705450   -0.959549   -0.179120
C      1.314840   -0.843506   -0.330004
C     -4.170617    0.118821   -0.962481
N     -3.460322    1.286737   -0.640184
O     -0.960695    0.872990    1.950320
O      0.785684    0.379349   -0.293778
H     -5.684837    0.639559    0.528385
H     -4.883900   -1.008293    0.766579
H     -6.061945   -0.750575   -0.521985
H     -3.379978   -1.845484   -0.415119
H     -3.898998   -1.718869   -2.090304
H     -2.372761   -0.965266   -1.612997
H     -5.303945   -0.485850   -2.734228
H     -5.799868    1.097641   -2.062319
H     -4.287165    0.954400   -2.988877
H      5.454658    1.938080   -0.385876
H      6.448591    1.366688    1.055302
H      4.618059    1.523080    2.535302
H      4.255445    2.977871    1.457339
H      3.127609   -4.305362   -0.394622
H      0.654691   -4.168222   -0.670918
H      5.465619   -0.440447   -0.643943
H      5.052097   -0.679385    1.136367
H      2.615598    0.648874    1.962743
H      2.367602    1.947546    0.788489
H      4.394855   -2.243467   -0.088190
H     -0.445867   -1.953939   -0.626370
H     -3.302482    1.168582    1.476478
H     -2.379711    2.453077    0.701352
H     -0.903565    0.901147   -1.419087
H     -0.317778    2.064573   -0.236416
H      3.456851    0.835196   -0.961602
H     -1.763146   -0.503196    0.648613
H     -3.592906    2.097858   -1.239103
H     -0.653656    1.806467    1.914317
