37

C      2.972139   -1.592835    0.013978
C      3.134920    0.819775   -0.293664
C     -1.155833    1.138029   -2.239811
C     -0.728198   -0.390860    1.769111
C      1.646997   -0.088854    1.484342
C      0.955878   -0.307294   -0.758565
C     -2.770039   -1.606558    1.654385
C     -2.317642    1.546836   -0.039378
C     -3.032937   -0.689520   -1.113268
C      0.293325    0.583024    1.308287
C     -1.843762   -0.626524    1.099149
C      0.193183    0.863683   -0.136572
C      2.203523   -0.315113    0.111021
C     -1.155435    0.920198   -0.728091
C     -2.185841    0.042854   -0.157091
O     -3.859964   -1.903976    1.094954
O     -4.229027   -0.530259   -1.157123
H      2.401917   -2.453798   -0.337619
H      3.901483   -1.481967   -0.593155
H      3.339271   -1.848035    1.049960
H      2.771818    1.797394    0.063369
H      3.302838    0.829459   -1.371554
H      4.100901    0.633275    0.236625
H     -1.813904    1.991737   -2.522915
H     -1.530485    0.260293   -2.783271
H     -0.153519    1.369193   -2.629352
H     -0.511009   -0.908362    2.697968
H      2.340332    0.547272    2.069021
H      1.569495   -1.072390    1.981740
H      0.406007   -1.245657   -0.580876
H      1.190629   -0.114101   -1.808165
H     -2.569104   -2.139395    2.590354
H     -2.181078    2.022110    0.964651
H     -3.128691    2.031027   -0.615229
H     -2.584571   -1.386652   -1.794547
H      0.247391    1.536267    1.875699
H      0.778995    1.769724   -0.404372
