51

C     -6.036906    2.373511    1.061731
C     -6.521179    0.031089    0.254706
C     -2.876424   -2.762821    0.737171
C     -4.537288   -2.062524   -0.996055
C      8.164691    1.251244   -0.711779
C      7.212978    1.870106   -1.492778
C      7.768474    0.835995    0.541973
C      5.936389    2.062225   -1.043363
C      6.484250    1.025452    1.003018
C      3.109097   -0.402203    1.129581
C      2.272496   -1.234134    0.450641
C     -4.236265    0.786034    0.785356
C      4.132136    1.866941    0.687260
C      1.070228   -1.207489   -1.766961
C     -5.496646    0.994784    0.676297
C      5.540025    1.646593    0.211394
C      3.283989    0.706085    0.321681
C      1.948929   -0.636783   -0.746169
C     -3.297780   -0.280530    0.556837
C     -2.553624   -0.597717   -0.658730
C     -1.136205   -1.033820   -0.651521
C     -3.521536   -1.581469   -0.020857
O     -0.685125   -1.626139    0.362507
O     -0.268715   -0.829238   -1.698868
O      2.577986    0.511579   -0.767186
H     -5.255971    3.128745    0.947715
H     -6.874999    2.651272    0.399428
H     -6.435204    2.270177    2.086871
H     -6.582610   -0.107131   -0.833297
H     -6.448968   -0.944337    0.774622
H     -7.565257    0.389911    0.607955
H     -2.232356   -3.349985    0.073769
H     -2.428231   -2.440796    1.684022
H     -3.731452   -3.438555    1.016416
H     -4.031403   -2.865785   -1.630970
H     -5.388331   -2.547219   -0.514804
H     -4.806344   -1.291203   -1.755649
H      9.171993    1.110689   -1.092300
H      7.539459    2.193214   -2.481170
H      8.513003    0.345678    1.167439
H      5.190677    2.551085   -1.664588
H      6.213888    0.689855    1.981128
H      3.538890   -0.591367    2.105155
H      1.951254   -2.206350    0.851552
H     -3.694076    1.749651    1.174644
H      3.748675    2.806573    0.234475
H      4.188548    1.929847    1.793190
H      1.100542   -2.332865   -1.675602
H      1.430536   -1.013875   -2.809358
H     -2.550141   -0.315902    1.488438
H     -2.896096   -0.078098   -1.576073
