26

C     -1.395942    1.887750   -0.484102
C     -3.023089   -1.263352   -0.275318
C      3.526175   -0.436524   -0.634457
C      3.111925    0.824753   -0.286666
C      2.676340   -1.484407   -0.453708
C      1.846500    1.026169    0.239640
C      1.404639   -1.273219    0.078083
C     -0.363368    0.122626    1.018289
C     -1.500297    0.531599    0.151700
C      0.958253   -0.004364    0.438789
N     -1.959666   -0.458615   -0.777883
H     -1.011081    1.910472   -1.499811
H     -2.450700    2.346606   -0.508969
H     -0.851684    2.551373    0.224711
H     -3.199555   -2.142420   -0.916302
H     -2.719305   -1.643910    0.745711
H     -3.951916   -0.685384   -0.104177
H      4.519959   -0.581975   -1.054071
H      3.814351    1.633430   -0.446492
H      3.012276   -2.476590   -0.736771
H      1.552931    2.016604    0.490757
H      0.798371   -2.153490    0.186325
H     -0.708440   -0.863180    1.496861
H     -0.388809    0.810428    1.919053
H     -2.375134    0.642704    0.893392
H     -1.322735   -0.837084   -1.437024
