113

C      1.584352    1.863544   -1.218505
C      0.857473    5.807558   -1.442157
C     -7.338002   -1.625604    0.374883
C     -0.960948   -0.746552   -2.626486
C     -2.939799    0.430597   -1.986813
C     -2.127487    2.216415    2.506382
C      5.762743    2.120887   -2.965310
C     10.328738    0.441656    1.818971
C     -6.287217   -5.900194   -1.080268
C      5.301832    2.028824   -1.670157
C      6.149598    0.921722   -3.561716
C      9.805597    0.149703    0.562709
C      9.562985    0.183720    2.910762
C     -6.098674   -4.713282   -1.722302
C     -5.636901   -6.098294    0.142107
C      5.222151    0.838449   -0.993977
C      6.072860   -0.280713   -2.890076
C      8.527887   -0.393558    0.433395
C      8.292517   -0.356867    2.765516
C     -5.287333   -3.746097   -1.169451
C     -4.831958   -5.109576    0.666885
C     -4.906771    2.497436    2.606385
C     -0.313985   -1.441258   -0.141007
C     -3.764736   -0.437430    3.385158
C      0.559775    0.827951   -0.970026
C     -0.154786    4.743734   -1.632897
C     -6.271835   -0.606686    0.689600
C      5.610467   -0.328361   -1.608143
C      7.748154   -0.656238    1.531278
C     -4.635566   -3.906536    0.025411
C      0.902033   -0.545386   -0.449711
C     -4.144702    2.766081    1.349710
C     -4.897682    1.113012    3.075829
C     -0.685086    1.191956   -1.197351
C      5.520944   -1.642975   -0.890416
C      4.191553   -2.306444   -1.223445
C     -1.042894    2.532369   -0.966868
C     -3.420300    0.555738    1.049291
C     -2.115742    2.605723    0.177647
C     -2.680573   -0.667799    0.674096
C      6.408552   -1.207143    1.423605
C     -3.801381   -2.885902    0.577360
C      3.113217   -1.599680   -0.520001
C     -1.576401    0.019236   -1.508922
C     -2.852936    1.907383    1.208736
C     -4.364096    0.107754    2.133592
C     -1.463561   -0.549804   -0.130507
N      5.775304   -1.497446    0.446364
O     -1.039546    4.889426   -2.500676
O     -6.241980    0.389767   -0.046062
O     -3.883441    4.122417    1.425632
O      4.045870   -2.383551   -2.591471
O     -2.410908    3.762232    0.128220
O      5.762308   -1.430969    2.701530
O     -3.191442   -3.136172    1.679107
O      3.259834   -1.325334    0.695038
O     -0.862980    0.365913    0.834226
O     -4.094251    0.726975    4.134124
O     -0.174390    3.579232   -0.890209
O      1.915778   -1.203868   -1.098698
O     -3.563695   -1.629170    0.052204
O     -5.397491   -0.751660    1.710616
H      1.406117    2.434093   -2.156013
H      2.486372    1.284375   -1.528853
H      1.921397    2.430663   -0.366895
H      1.553075    5.490060   -0.613740
H      0.371788    6.781084   -1.179546
H      1.480017    5.949840   -2.346803
H     -7.287219   -2.512945    0.999868
H     -7.335234   -1.791466   -0.703285
H     -8.324305   -1.110198    0.586090
H      0.067718   -0.354119   -2.901080
H     -1.490500   -0.536008   -3.618915
H     -1.022645   -1.827989   -2.583435
H     -3.218562    1.476435   -1.770474
H     -3.692907   -0.332220   -1.864395
H     -2.881337    0.510090   -3.130805
H     -1.767036    1.395338    3.096759
H     -2.672750    2.890861    3.195538
H     -1.176999    2.819604    2.303531
H      5.831249    3.053153   -3.508629
H     11.318065    0.860610    1.919881
H     -6.931113   -6.667187   -1.517041
H      4.994003    2.946649   -1.181333
H      6.513631    0.989671   -4.583750
H     10.436221    0.366478   -0.283074
H      9.979955    0.414316    3.891882
H     -6.587954   -4.513317   -2.683028
H     -5.812975   -7.054796    0.621097
H      4.852994    0.791799    0.039674
H      6.376456   -1.204810   -3.371570
H      8.206029   -0.595457   -0.566158
H      7.731396   -0.540385    3.661175
H     -5.179951   -2.833065   -1.727187
H     -4.357497   -5.337994    1.625341
H     -4.641431    3.188946    3.431485
H     -5.967051    2.829566    2.350830
H     -0.215792   -1.905189    0.894962
H     -0.335727   -2.336064   -0.770752
H     -4.384456   -1.252952    3.859832
H     -2.734558   -0.732670    3.441954
H      1.300895   -0.345794    0.599736
H     -4.702645    2.598243    0.415060
H     -5.961703    0.838998    3.412437
H      6.280032   -2.347196   -1.410186
H      4.188783   -3.354208   -0.779818
H     -1.725458    2.839672   -1.790730
H     -4.144973    0.687644    0.208097
H     -2.368338   -1.202876    1.611778
H     -4.651229    4.646864    1.121359
H      3.137000   -2.222978   -2.919274
H      4.975980   -2.076095    2.725476
H     -0.657880   -0.123934    1.640186
