57

C     -6.872550    0.985950    1.185741
C      0.283087   -0.208165    3.006965
C     -1.053242    0.974938   -2.435683
C     -4.390797   -1.712879   -1.529737
C     -3.030516   -1.489468   -1.446039
C     -5.318450   -0.986803   -0.776164
C      6.599798   -0.239525    0.673014
C     -1.795217    1.544911    1.258152
C     -0.225641   -1.194257   -0.778116
C      6.048189    0.612072   -1.455952
C      8.166609    1.114238   -0.538099
C      1.369807   -0.339248    0.922612
C     -4.460884    1.593465    1.531167
C      2.194893   -1.197179   -1.351138
C      1.166068   -0.553841   -0.517458
C      5.692392   -0.125481   -0.353383
C     -3.242474    1.181831    1.041277
C      7.850616    0.385490    0.582929
C     -2.604369   -0.508539   -0.579216
C     -4.891366    0.004169    0.100157
C     -1.016569    0.226091    1.071943
C     -3.527402    0.188269    0.147422
C      4.386016   -0.796757   -0.223696
C     -1.179451   -0.141207   -0.384032
Br     9.144123    0.260698    1.973370
N      7.273447    1.215183   -1.526627
N     -5.454708    0.871511    0.952725
N      0.248126    0.227944    1.622153
O      4.106474   -1.458275    0.800418
O     -0.931800    1.029687   -1.085387
O      3.463493   -0.711094   -1.208943
H     -7.406206    1.325444    0.252346
H     -7.306687   -0.029926    1.389607
H     -7.131587    1.694404    1.972085
H      1.139709   -0.914192    3.171184
H      0.271815    0.620990    3.725851
H     -0.635365   -0.849447    3.146417
H     -0.353046    0.258996   -2.882085
H     -0.901103    1.990218   -2.907073
H     -2.069255    0.648859   -2.746736
H     -4.725233   -2.490612   -2.217346
H     -2.289700   -2.017837   -2.000304
H     -6.367358   -1.169827   -0.850826
H      6.384931   -0.798485    1.557318
H     -1.688290    1.845296    2.305407
H     -1.484036    2.300332    0.526589
H     -0.289376   -2.122564   -0.170113
H     -0.286915   -1.416349   -1.847391
H      5.338685    0.697049   -2.250429
H      9.147870    1.608307   -0.615985
H      2.233107    0.323556    1.134534
H      1.570818   -1.313311    1.413484
H     -4.584230    2.377874    2.267546
H      2.161810   -2.333685   -1.263559
H      1.894769   -0.958590   -2.435250
H      1.032228    0.494011   -0.962928
H     -1.655058   -0.524239    1.631874
