44

C     -2.959165   -2.222780   -0.798696
C     -4.289004   -0.733160    0.590660
C      5.820645   -1.271470    1.023209
C     -2.026683    2.512425   -0.241257
C     -0.685034    3.129193   -0.576812
C      2.627704   -1.688258   -1.539463
C     -2.131899    1.253526   -1.027810
C      1.475252   -0.915747   -1.346152
C      3.667344   -1.522785   -0.665547
C      0.403225    2.134401   -0.772366
C      2.430132    0.131353    0.545021
C     -1.862679   -0.547730    0.589478
C      1.353051   -0.011088   -0.324024
C     -1.138322    0.188654   -0.536820
C      3.583279   -0.616722    0.380784
C      0.149332    0.785952   -0.118938
N     -3.040683   -1.136348    0.079401
O      0.065672    1.032289    1.274846
O      4.668955   -0.487898    1.235801
H     -2.029806   -2.225022   -1.377407
H     -3.067264   -3.222087   -0.295950
H     -3.830765   -2.143466   -1.516710
H     -4.206154    0.192165    1.198137
H     -4.791606   -1.544351    1.198241
H     -4.968535   -0.540820   -0.294294
H      6.147470   -1.087725   -0.042166
H      6.603916   -1.058830    1.757042
H      5.483166   -2.345131    1.031924
H     -2.828540    3.193477   -0.643178
H     -2.231367    2.410268    0.819974
H     -0.435520    3.954324    0.126127
H     -0.849352    3.640510   -1.572812
H      2.633339   -2.378539   -2.374282
H     -1.859734    1.531779   -2.094832
H     -3.155671    0.839762   -1.075753
H      0.659630   -1.029395   -2.027674
H      4.567747   -2.110974   -0.797784
H      0.689240    1.932615   -1.802928
H      1.306335    2.541183   -0.261160
H      2.371725    0.845003    1.380472
H     -1.141141   -1.299697    1.025266
H     -2.084257    0.182702    1.425588
H     -1.082967   -0.506203   -1.383061
H     -0.011011    0.214645    1.802558
