69

C     -4.449261    0.967730   -1.974533
C     -5.102176    0.613727    0.345324
C     -3.933077   -5.754421    0.895559
C     -3.529714    5.297278    0.375136
C     -2.949610    4.847738   -0.790241
C     -3.837464    4.349425    1.326064
C      7.969513   -0.753682   -1.431975
C      6.958925   -1.865061   -1.578546
C     -2.687784    3.513417   -0.999107
C     -3.576485    3.000474    1.123529
C      0.267068    1.012847    1.702277
C      0.020623    0.159864   -0.486286
C      1.658135    1.092665    1.548799
C      1.403059    0.226402   -0.672896
C     -1.932771   -2.996402    2.286061
C     -1.700539   -1.657665    2.050297
C      7.642023   -0.070814   -0.118441
C      6.080075   -1.698922   -0.366735
C      5.615320    0.489961   -1.098069
C      4.128290    0.344500   -1.063701
C     -3.414742   -3.012412    0.466902
C     -0.539901    0.552648    0.698094
C     -2.997202    2.557495   -0.042656
C      2.203593    0.686112    0.331789
C     -2.810931   -3.717326    1.485167
C     -2.321430   -0.983376    1.022649
C     -3.190538   -1.680682    0.223913
C     -1.995550    0.457397    0.860078
C     -2.702032    1.106215   -0.279571
C     -4.001442    0.413304   -0.639087
N      6.200442   -0.300642   -0.049953
O     -3.031086   -5.063744    1.738688
O      3.567648    0.759116    0.166821
O     -3.807447   -0.980464   -0.808935
H     -5.447172    0.568531   -2.274138
H     -3.666613    0.758705   -2.731135
H     -4.489769    2.089261   -1.894209
H     -4.881126    0.212865    1.353001
H     -5.958620   -0.031801   -0.017351
H     -5.525041    1.637546    0.340747
H     -4.973879   -5.436346    1.083690
H     -3.642446   -5.542227   -0.157850
H     -3.881333   -6.848498    1.100603
H     -3.731233    6.358759    0.526437
H     -2.690067    5.567044   -1.572014
H     -4.289324    4.674050    2.241069
H      7.960301   -0.028377   -2.260472
H      8.986220   -1.216312   -1.319305
H      6.417833   -1.751493   -2.526153
H      7.454616   -2.871049   -1.527885
H     -2.224748    3.156490   -1.929611
H     -3.828443    2.280324    1.897943
H     -0.138287    1.334962    2.661452
H     -0.570992   -0.213908   -1.303538
H      2.286653    1.457748    2.347194
H      1.840126   -0.080783   -1.602084
H     -1.445412   -3.540791    3.098992
H     -0.991121   -1.155599    2.727858
H      8.100436   -0.559892    0.751786
H      7.853625    1.009410   -0.143602
H      6.523147   -2.291971    0.477446
H      5.037095   -1.981322   -0.544380
H      5.936171    0.160124   -2.127162
H      5.842137    1.580300   -0.976112
H      3.748435   -0.672669   -1.274718
H      3.640915    1.033180   -1.827658
H     -4.103017   -3.559588   -0.166980
H     -2.246924    0.922733    1.844056
H     -2.105676    1.067888   -1.215272
