30

C     -1.737874   -1.480433    0.672723
C      1.632067   -1.391611   -0.696919
C      2.925218   -1.296000   -0.270923
C      1.319712    0.931747   -0.382686
C     -0.579647   -0.338106   -1.244450
C      0.790951   -0.333673   -0.776794
C      3.432066   -0.090431    0.106102
C      2.619171    1.029170    0.040939
C     -2.882525    0.110244   -0.897314
C     -1.703469   -0.323838   -0.172022
N     -2.258260    0.946574    1.680503
N     -1.243549    0.844195    0.698248
O      4.737694    0.060206    0.540692
O      3.153051    2.263987    0.424290
O     -3.190602   -0.369704   -2.055345
O     -3.824362    1.110693   -0.507550
H     -2.781106   -1.916225    0.728694
H     -1.476952   -1.285933    1.776887
H     -1.057885   -2.331153    0.336474
H      1.326003   -2.425405   -0.977150
H      3.560741   -2.166975   -0.220235
H      0.675181    1.802659   -0.364459
H     -0.776773   -1.302074   -1.795026
H     -0.784875    0.498591   -1.909782
H     -3.074116    0.356879    1.410703
H     -1.943090    0.721609    2.630734
H     -0.434366    0.416543    1.236342
H      5.030964    1.019386    0.858771
H      2.511969    3.073223    0.357335
H     -3.965337    1.865856   -1.228781
