44

C     -4.349502   -0.314984   -1.806804
C     -4.869770   -1.646249    0.180641
C      4.695213    0.930308    0.085087
C      3.685072   -0.883264   -1.048015
C      5.860444    0.200417    0.292914
C      4.852682   -1.600091   -0.834139
C      3.624238    0.399476   -0.574075
C      5.935621   -1.078914   -0.173729
C      2.401733    1.203923   -0.773395
C     -0.267977    0.424023    0.333708
C     -3.709850    0.553847    0.458143
C      1.311086    0.466894   -1.430452
C     -1.092808    1.624230    0.488542
C     -1.511508   -0.283136    0.806436
C     -4.259502    0.379366    1.807424
C     -3.894352   -0.649018   -0.424014
N      2.078359    1.828082    0.468199
N      0.179567    0.134642   -0.966315
N     -2.333638    0.883825    0.517637
O      7.080446   -1.841285    0.012783
O      1.534824    0.057469   -2.778174
O     -0.865204    2.847625    0.570237
O     -3.494628    0.533211    2.790776
O     -5.580794    0.052197    2.083694
S     -2.249389   -1.421620   -0.404301
H     -5.441028   -0.111052   -1.769288
H     -3.870144    0.601487   -2.209260
H     -4.153535   -1.150208   -2.491287
H     -4.819815   -2.578803   -0.417148
H     -4.596741   -1.907762    1.219595
H     -5.905868   -1.235538    0.103355
H      4.684958    1.952107    0.478823
H      2.894082   -1.383636   -1.575086
H      6.681657    0.659595    0.818659
H      4.930941   -2.621499   -1.199000
H      2.708593    2.043967   -1.463401
H      0.522815    0.249905    1.122400
H     -4.270863    1.387507   -0.020204
H     -1.526974   -0.636033    1.835784
H      1.980158    2.851252    0.413921
H      2.708456    1.540288    1.240057
H      7.816333   -1.819634   -0.682599
H      0.753272   -0.119579   -3.369807
H     -5.856660   -0.523341    2.864590
