35

C      3.519824    1.162737    0.665100
C     -1.277410    2.792665    1.498816
C      0.612876   -2.039605   -0.725013
C      2.271206    0.242147    0.727837
C     -0.670222    2.158325    0.503545
C      1.598823    0.259147   -0.591821
C     -1.387036    1.206567   -0.314860
C      0.417220   -0.523190   -0.862652
C     -1.875014   -0.846872   -1.361672
C     -1.217198   -0.898018    0.956560
C     -2.867310   -2.303331    0.095732
C     -0.943558   -0.221541   -0.339122
N     -2.717196   -1.755673   -1.180976
N     -2.077283   -1.825398    1.137698
O     -1.743993   -0.312671   -2.654071
O     -0.531550   -0.568403    2.148262
O     -3.718782   -3.219318    0.266775
H      3.173025    2.094713    0.190716
H      4.248288    0.612370    0.044904
H      3.884780    1.348040    1.684975
H     -0.737280    3.493745    2.096658
H     -2.314632    2.602211    1.705581
H      0.628669   -2.360482    0.318529
H     -0.280357   -2.493416   -1.203977
H      1.488986   -2.337383   -1.320287
H      2.654251   -0.722772    1.053352
H      1.652959    0.763266    1.487435
H      0.357976    2.402192    0.348717
H      2.433584   -0.236121   -1.276201
H      1.582168    1.259532   -1.066081
H     -1.462199    1.535531   -1.397246
H     -2.478579    1.213335    0.007185
H      0.284698   -0.440010   -2.018967
H     -2.234353   -0.768769   -3.432036
H     -0.275383   -1.273550    2.806605
