23

C      1.739182    1.357540   -0.102921
C     -3.199164    0.235124   -0.055693
C     -2.602804   -0.861182   -0.634127
C     -2.470529    1.014955    0.816885
C     -1.293515   -1.198804   -0.362029
C     -1.151500    0.700801    1.110370
C      0.818901   -0.785090    0.791385
C      1.794609   -0.138992   -0.177176
C     -0.571594   -0.397643    0.523752
N      3.123418   -0.651147    0.085658
H      1.615186    1.666462    0.973471
H      0.881185    1.747941   -0.679006
H      2.670120    1.821325   -0.488786
H     -4.230515    0.496893   -0.273154
H     -3.188422   -1.453692   -1.309916
H     -2.895058    1.889777    1.298997
H     -0.850523   -2.062973   -0.828786
H     -0.613462    1.331836    1.795996
H      1.085330   -0.389248    1.802193
H      0.949055   -1.869734    0.834196
H      1.503435   -0.480293   -1.192690
H      3.075866   -1.679688    0.063568
H      3.810799   -0.294169   -0.591885
