92

C     -7.052946    1.731384   -1.089323
C     -7.502387   -0.661704   -1.649596
C     -0.196854    3.425258   -1.248262
C     -1.395162    3.097667    0.847023
C      3.061392   -3.185224   -1.170390
C      6.970891    2.689449    0.108294
C     -4.109076   -2.774785    2.244982
C      5.729024    2.112293   -0.029102
C      8.118740    1.934993    0.397670
C     -2.924077   -2.393852    1.350239
C     -4.511417   -1.466174    2.930623
C     -5.187116    0.063463   -1.049574
C      3.293819    0.614164    0.176687
C      5.574338   -2.184894    0.495109
C      2.188278   -1.569406    0.406153
C     -6.670022    0.295492   -0.853875
C     -0.263132    2.557001   -0.012092
C      2.005729   -0.115643    0.061184
C      5.668558    0.745809    0.133059
C      4.410044   -0.022579    0.009191
C      6.807218   -1.358734    0.592764
C      8.030050    0.558448    0.556378
C      4.503855   -1.453551   -0.296107
C     -4.376746    0.910662   -0.092039
C     -2.732539   -0.890207    1.585366
C      6.781708    0.004892    0.415081
C      8.151297   -1.617479    0.852854
C      1.373980    0.076521   -1.260143
C     -4.685004    0.608741    1.316690
C     -2.018741    1.405222   -1.127168
C     -0.677002    1.151321   -0.484258
C     -2.161274   -0.301040    0.351683
Br     8.868256   -3.335397    1.191310
N      8.865550   -0.462863    0.827164
N      0.251370    0.613579   -1.409485
N      3.302102   -2.190178   -0.187053
N     -4.061030   -0.504800    1.921935
N     -2.947093    0.711223   -0.295397
O      2.086887   -0.373454   -2.394977
O     -5.484018    1.327046    1.958459
O     -2.193074    2.080573   -2.153084
O     -1.904609   -1.287454   -0.628672
O     -0.940751    0.357394    0.603444
C     -1.170667    0.147907    0.079676
O      1.480210    0.977722   -0.054896
O      0.803512   -1.423385   -0.918526
O      0.879158   -1.002250    1.453361
S      0.526890   -0.387160    0.113199
H     -7.961910    1.719992   -1.754738
H     -6.286256    2.307369   -1.640529
H     -7.326241    2.253205   -0.149549
H     -8.539541   -0.709432   -1.262656
H     -7.004627   -1.662997   -1.611024
H     -7.577786   -0.271826   -2.690370
H      0.024930    2.817440   -2.156140
H      0.629440    4.185660   -1.165553
H     -1.121869    4.018571   -1.403392
H     -0.937037    3.939733    1.441777
H     -2.197773    3.558651    0.247264
H     -1.819197    2.353864    1.525253
H      3.228140   -2.866839   -2.218246
H      2.016867   -3.549987   -1.049331
H      3.707728   -4.071670   -0.915949
H      7.116661    3.751605   -0.000818
H     -3.813510   -3.545413    2.977825
H     -4.976903   -3.101693    1.668068
H      4.855141    2.669223   -0.249077
H      9.089319    2.384168    0.505099
H     -2.041582   -2.972015    1.624952
H     -3.259747   -2.581348    0.302955
H     -5.590920   -1.407514    3.120179
H     -3.902929   -1.370844    3.852251
H     -4.853337    0.150662   -2.081561
H     -5.006687   -1.005742   -0.736615
H      3.266074    1.672888    0.403631
H      5.215265   -2.470422    1.512965
H      5.811611   -3.134156   -0.023097
H      2.249720   -1.672583    1.520311
H      1.259770   -2.089650    0.072886
H     -6.874261    0.079735    0.236068
H      0.646233    2.566753    0.576550
H      1.340348    0.310505    0.831189
H      4.848706   -1.526625   -1.366679
H     -4.672735    1.961298   -0.286092
H     -2.019658   -0.826566    2.434510
H      9.887600   -0.335517    0.983850
H      1.596832   -0.695390   -3.217629
H     -1.054893   -1.756265   -0.461740
H     -1.747483   -0.537508   -0.555868
H     -1.260839    1.167403   -0.381438
H     -1.547100    0.164238    1.114700
H      2.036319    0.893033   -0.850208
