53

C      6.816239    1.352689   -0.300523
C     -4.212237   -3.189401   -1.522478
C      6.607954    0.166826   -0.954660
C      5.832047    1.800488    0.552586
C     -3.439719   -2.445389   -2.383508
C     -4.284387   -2.770504   -0.212756
C      5.449273   -0.538997   -0.754063
C      4.657220    1.079242    0.752448
C     -2.762965   -1.309742   -1.920389
C     -3.617478   -1.653244    0.239092
C     -3.957792    1.429864    1.041579
C      0.232626    1.169621    0.177226
C     -0.265559   -1.124890    0.788014
C     -2.586359    0.857038    1.153893
C      1.648856    0.699419   -0.189253
C      1.105363   -1.091895    1.343085
C      3.253390   -0.959354    0.232019
C      4.438762   -0.103739    0.105751
C     -2.833622   -0.888536   -0.611360
C     -0.635496   -0.028360   -0.137389
C     -3.946205    2.545506    0.070883
C     -2.276409    1.388532   -1.178789
C     -2.101531    0.307738   -0.173271
N     -3.165278    2.493834   -0.933013
N      2.069135   -0.316484    0.689738
O     -4.768149    3.629574    0.245980
O     -1.684067    1.426412   -2.285378
H      7.741683    1.912596   -0.463306
H     -4.749424   -4.071185   -1.841074
H      7.360248   -0.228576   -1.641293
H      6.004705    2.732552    1.061613
H     -3.371863   -2.758406   -3.411039
H     -4.894176   -3.356648    0.470035
H      5.322642   -1.486089   -1.299104
H      3.905948    1.441458    1.422128
H     -2.175644   -0.780842   -2.652597
H     -3.682506   -1.345824    1.266326
H     -4.750653    0.709292    0.766419
H     -4.196959    1.879021    2.050422
H     -0.052807    2.075942   -0.354039
H      0.223557    1.289398    1.290056
H     -0.483790   -2.099096    0.258548
H     -0.989198   -1.124136    1.644661
H     -1.900229    1.694327    1.406127
H     -2.534939    0.157303    1.982365
H      2.317946    1.542769   -0.344491
H      1.516512    0.231716   -1.211162
H      1.094658   -0.798746    2.435290
H      1.478569   -2.160905    1.373476
H      3.081570   -1.482296   -0.732679
H      3.507365   -1.761493    0.969117
H     -0.377454   -0.370187   -1.182678
H     -4.969375    4.231808   -0.560404
