67

C     -5.808374   -0.575267   -0.656123
C     -2.054796    5.583852    1.172252
C      6.046216   -4.147108    1.275293
C      7.453356   -0.614591   -0.396262
C      6.537181    0.387412   -0.665984
C      7.001100   -1.785711    0.155687
C     -2.513542   -2.335707   -0.233309
C     -0.503738    2.990194   -0.608518
C     -1.834064    1.938145    1.239577
C     -5.161399   -1.510729    0.336842
C     -2.205768    4.275608    0.509347
C      5.191852    0.243964   -0.397904
C      0.541861    1.962559   -0.381873
C     -3.632659   -2.947875   -1.045682
C      5.647284   -1.939319    0.429265
C     -1.382886    0.741413    0.393246
C     -2.929821   -0.939111    0.136659
C      4.735496   -0.939092    0.159591
C      0.056496    0.757612    0.186627
C      2.792564    1.123360   -0.386717
C      2.346997   -0.036231    0.159427
C     -4.921314   -2.840997   -0.284710
C      4.211262    1.298953   -0.679411
C      1.853856    2.129369   -0.654023
C      3.302747   -1.103760    0.449965
C      0.972093   -0.213070    0.445168
C     -1.197780    3.206853    0.744491
N     -3.715009   -2.421468   -2.378615
O     -3.131977    4.028928   -0.231980
O     -5.966244   -3.083113   -1.195025
O      4.627088    2.370152   -1.184595
O      2.354442    3.290928   -1.209361
O      2.908872   -2.175262    0.951866
O      0.646549   -1.407537    0.992906
O     -0.219599    3.673119    1.615351
O      5.139364   -3.104222    0.987311
O     -4.052570   -0.960098    0.957738
O     -1.892782   -0.386859    0.933188
H     -5.662507   -0.962692   -1.692795
H     -6.927316   -0.538728   -0.525957
H     -5.463498    0.465085   -0.530505
H     -3.017983    6.145381    1.052575
H     -1.785513    5.474313    2.246030
H     -1.233847    6.193463    0.719051
H      5.489543   -4.891646    1.882881
H      6.920543   -3.787036    1.870830
H      6.431659   -4.551265    0.327719
H      8.512135   -0.526945   -0.596851
H      6.883363    1.310843   -1.099571
H      7.680084   -2.587491    0.379929
H     -1.582657   -2.291052   -0.833062
H     -2.401101   -2.924426    0.690879
H     -0.103724    3.977224   -0.926119
H     -1.236074    2.601739   -1.339980
H     -2.918111    2.026028    1.134410
H     -1.531242    1.772803    2.283685
H     -5.926583   -1.661731    1.154689
H     -3.391485   -4.040761   -1.135339
H     -1.893028    0.913824   -0.613073
H     -3.054647   -0.287020   -0.739993
H     -4.983417   -3.678407    0.461804
H     -3.398550   -1.424957   -2.410302
H     -3.045549   -2.949187   -2.982321
H     -5.741385   -3.785739   -1.837787
H      1.753108    4.048228   -1.431740
H     -0.225511   -1.710451    1.279217
H      0.610935    3.135306    1.569993
