55

C      6.626654   -0.603195    1.552319
C     -4.339598    3.255305   -0.469842
C      6.542960   -0.842420    0.200379
C      5.607273    0.053622    2.174753
C     -3.800008    2.632362   -1.573910
C     -4.140504    2.718427    0.779673
C      5.436336   -0.414044   -0.486206
C      4.493463    0.485547    1.487298
C     -3.054315    1.458610   -1.411261
C     -3.399382    1.562100    0.888292
C     -3.956082   -1.379690    0.992753
C      0.284377   -1.278546    0.313527
C      0.092369    0.847668   -0.829428
C     -2.489080   -1.071818    1.208225
C      1.696300   -0.699556    0.531521
C      1.174991    0.139345   -1.658317
C      3.215802    0.697080   -0.665999
C      4.391180    0.255586    0.133895
C     -2.833450    0.892024   -0.177279
C     -0.594726   -0.031518    0.134831
C     -3.984988   -2.545633    0.042086
C     -2.345273   -1.285923   -1.159882
C     -2.027048   -0.335295   -0.059680
N     -3.184371   -2.419032   -0.959879
N      2.195320   -0.325946   -0.772646
O     -4.798485   -3.634275    0.244640
O     -1.889798   -1.148266   -2.346512
Cl     0.690137    0.000000    0.000000
H      7.484641   -0.921800    2.149440
H     -4.922731    4.164403   -0.549653
H      7.328143   -1.358427   -0.327404
H      5.649261    0.257287    3.253344
H     -3.962859    3.063245   -2.551416
H     -4.559920    3.194487    1.680110
H      5.335611   -0.585921   -1.557970
H      3.712054    0.997970    2.003621
H     -2.678852    1.032791   -2.319687
H     -3.260460    1.167242    1.870599
H     -4.503446   -0.578505    0.453826
H     -4.470336   -1.632158    1.940635
H      0.365056   -1.852785   -0.631792
H     -0.000830   -1.875803    1.181200
H      0.695137    1.629514   -0.264203
H     -0.499106    1.401701   -1.546851
H     -2.244650   -0.560262    2.129474
H     -1.995717   -2.080313    1.273688
H      2.317967   -1.505147    0.944084
H      1.605648    0.181919    1.208723
H      0.782031   -0.603066   -2.344580
H      1.589907    0.965394   -2.310521
H      3.548436    1.050514   -1.658197
H      2.757620    1.546569   -0.104042
H     -0.521164    0.447817    1.169011
H     -4.471358   -4.529186   -0.152115
H     -0.690137    0.000000    0.000000
