43

C      3.652752   -2.152654   -1.218438
C     -3.601381    0.249338   -0.906730
C     -2.881710   -0.225798    1.251256
C      3.611914   -0.752339   -0.707489
C      0.757291    4.086434    1.040767
C      1.626077    3.118884    1.487557
C     -0.352834    3.735080    0.322072
C     -0.958037   -2.622434   -0.144059
C     -0.029961   -2.306558    0.946243
C      1.324852    1.811765    1.180134
C     -0.644243    2.406923    0.018254
C     -1.540134   -1.697148   -0.860284
C      0.057601   -0.879807    1.346976
C      0.202301    1.421726    0.449733
C     -1.285587   -0.230125   -0.602109
C      1.179308   -0.406167   -0.699523
C     -0.035649    0.016316    0.110726
N     -2.445205    0.307362    0.011696
O      1.056503   -0.757716   -1.892047
O      2.394994   -0.388348   -0.083780
H      3.892599   -2.133635   -2.323775
H      4.448459   -2.780148   -0.771308
H      2.689064   -2.703628   -1.072061
H     -3.292618   -0.066864   -1.909596
H     -4.336104   -0.493747   -0.528093
H     -4.133535    1.217671   -0.938569
H     -2.635558   -1.251269    1.488457
H     -2.625468    0.419587    2.143401
H     -4.030666   -0.208155    1.292872
H      4.392360   -0.682720    0.106090
H      3.927311   -0.026803   -1.490169
H      0.991429    5.130273    1.281321
H      2.526057    3.375158    2.068031
H     -1.025362    4.524841   -0.020400
H     -1.151845   -3.671074   -0.343364
H      0.993562   -2.709656    0.702649
H     -0.363597   -2.913158    1.835205
H      2.031800    1.081710    1.565895
H     -1.544888    2.246011   -0.572262
H     -2.214850   -1.982613   -1.647530
H      1.144846   -0.741386    1.692584
H     -0.523319   -0.549295    2.193198
H     -1.248529    0.184163   -1.678125
