48

C     -5.337784    0.986555    2.285648
C     -3.833484    0.407132   -2.988824
C      4.165650   -0.558787   -3.288623
C     -0.162540   -1.688577   -3.005602
C      3.861903    0.130970    1.634227
C      3.258374    0.260732    3.013607
C     -0.318835    0.059256    2.528246
C      3.239092   -0.175712   -0.709172
C     -2.606178    0.484253    1.695828
C     -1.805402    0.189251   -0.929971
C      2.851466    0.013239    0.582509
C     -1.257033    0.235258    1.409738
C     -0.898834    0.096181    0.098301
C      1.066329    0.360165    2.201853
C     -3.520843    0.578966    0.685116
C     -3.151172    0.435852   -0.629166
C      2.347035   -0.273892   -1.741130
C      1.479464    0.109594    0.837361
C      0.543693    0.012928   -0.215526
C      0.955933   -0.180180   -1.492678
N      1.981676   -0.450219    3.069739
O     -4.866425    0.826567    0.977760
O     -4.128000    0.541418   -1.610515
O      2.780418   -0.466687   -3.049956
O      0.136851   -0.305738   -2.598154
H     -4.718596    1.677621    2.877650
H     -6.362199    1.446137    2.212869
H     -5.507758    0.009572    2.805918
H     -2.926215    0.996996   -3.283669
H     -4.698617    0.827993   -3.573573
H     -3.760566   -0.650005   -3.240339
H      4.601076    0.436005   -3.062392
H      4.651237   -1.324772   -2.642635
H      4.372427   -0.752278   -4.362483
H     -1.116042   -1.701326   -3.557332
H     -0.162965   -2.318222   -2.099799
H      0.629674   -2.039723   -3.688002
H      4.427789    1.092284    1.456047
H      4.628136   -0.664360    1.602508
H      3.042398    1.311590    3.294021
H      3.912356   -0.170299    3.770327
H     -0.386732   -1.013608    2.913748
H     -0.661096    0.667418    3.416552
H      4.304869   -0.253087   -0.941851
H     -2.880292    0.596370    2.754177
H     -1.622608    0.143687   -1.967228
H      1.300899    1.421290    2.529018
H      2.151471   -1.367805    2.559670
