59

C     -1.692858    3.694251    1.866462
C     -6.838260   -0.580990   -1.988210
C      6.791465   -0.806195   -1.970743
C      6.647873   -0.301434   -0.706350
C      6.076221   -1.907111   -2.385928
C     -2.876559   -2.630144   -1.191327
C      5.758603   -0.911336    0.186254
C      5.205634   -2.487850   -1.481810
C     -2.005164   -1.920255   -0.396083
C     -4.132334   -2.174563   -1.547887
C     -0.170765   -0.096269    0.925968
C     -3.458723    1.903804    0.933093
C      1.987614    0.919904    0.302097
C      0.152713    2.399511    1.028441
C     -5.497911    0.979912   -0.515937
C      4.096941   -2.658618    0.718578
C      5.036763   -2.007000   -0.204633
C      0.754719    1.023676    1.182856
C     -4.258933    0.963486    0.065874
C     -2.437072   -0.672194    0.064389
C     -1.627414    0.180301    0.927813
C     -4.554390   -0.939255   -1.089733
C     -1.981088    1.624229    0.678669
C     -3.687803   -0.238959   -0.302181
C      3.320002   -0.559285    1.679636
N      2.633093   -0.337166    0.618780
N     -1.154042    2.383918    1.602120
N     -5.676292   -0.182120   -1.220922
O      3.492510    0.437694    2.629939
O      3.868152   -1.827056    1.818705
H     -2.045868    4.213138    0.958373
H     -0.945793    4.279443    2.433122
H     -2.569920    3.565282    2.535111
H     -6.564021   -1.141566   -2.903613
H     -7.564116   -1.171917   -1.403006
H     -7.384486    0.322008   -2.342478
H      7.471846   -0.368503   -2.705761
H      7.234260    0.564574   -0.435699
H      6.173958   -2.321040   -3.377893
H     -2.565827   -3.598541   -1.559912
H      5.697283   -0.471855    1.152821
H      4.625253   -3.362383   -1.783380
H     -1.022100   -2.249005   -0.099786
H     -4.805710   -2.737846   -2.170249
H      0.078230   -0.546346   -0.082223
H      0.057352   -0.918731    1.638306
H     -3.633694    2.957681    0.641965
H     -3.758958    1.740593    1.966675
H      2.705322    1.738772    0.509148
H      1.701787    0.896420   -0.783168
H      0.122377    2.627967   -0.056375
H      0.810004    3.162727    1.490527
H     -6.215820    1.795686   -0.423471
H      3.151646   -2.902832    0.177312
H      4.579441   -3.601069    1.091994
H      1.157795    1.004602    2.237927
H     -2.001806   -0.017856    1.983430
H     -1.783063    1.865107   -0.377746
H      3.521937    1.402609    2.341113
