47

C     -2.339455   -1.221072    1.700502
C     -3.384933    0.976207    1.363483
C     -3.358552    1.836435   -1.541712
C      5.187478    0.755359   -0.573219
C      3.943890    0.266548   -1.347300
C      1.437297   -0.517223    0.972400
C      4.794215    0.615924    0.912299
C      2.681866   -0.243247    1.815862
C      0.986217   -0.925162   -1.474453
C     -3.207379   -0.376605    0.767617
C     -3.456885    0.364925   -1.628473
C      1.825261   -0.654533   -0.298637
C      3.286887   -0.490643   -0.262698
C     -1.244297   -0.102654   -0.763297
C     -2.666230   -0.427148   -0.619378
N      3.397751    0.495357    0.810687
O     -4.822249   -0.004132   -1.596246
O     -0.752526    1.025849   -0.449796
O     -2.840510   -1.781860   -1.034123
O     -0.373085   -1.054820   -1.265438
Cl     0.691984    0.000000    0.000000
H     -2.954733   -1.838226    2.369750
H     -1.749323   -0.537536    2.372126
H     -1.650560   -1.838404    1.077395
H     -3.679041    0.796742    2.446321
H     -2.458769    1.564503    1.436815
H     -4.185049    1.545668    0.867486
H     -2.661633    2.253875   -0.822535
H     -3.020363    2.232322   -2.545931
H     -4.343048    2.344039   -1.373719
H      5.447374    1.779452   -0.829559
H      5.992169    0.017524   -0.752303
H      4.255540   -0.343997   -2.216269
H      3.363151    1.154545   -1.613626
H      0.438023   -0.582023    1.386881
H      5.072421    1.582732    1.390295
H      5.312200   -0.233487    1.382547
H      2.436089    0.344268    2.699027
H      3.126702   -1.226511    2.001957
H      1.354014   -1.905036   -1.899919
H      1.221493   -0.182191   -2.275796
H     -4.200797   -0.887047    0.753300
H     -3.128489    0.009693   -2.655457
H      3.825316   -1.425732   -0.005960
H     -4.921646   -0.911551   -1.987898
H     -1.985802   -2.251127   -1.070178
H     -0.691984    0.000000    0.000000
