51

C     -5.051567   -1.459757    1.014211
C     -5.113249    2.330756   -1.217312
C      0.579313   -2.957694   -0.594255
C     -5.235972    0.011833    0.771223
C     -4.129242    2.057288   -0.119345
C      4.173132    2.712768   -1.372959
C      2.990215    1.994113   -1.261397
C      5.306931    2.341241   -0.692959
C      3.096561   -1.376499    1.330145
C      0.624543    0.518279   -0.498558
C      5.596407   -0.463815    1.503446
C     -0.221703   -1.277927    0.852317
C      4.251935   -0.518766    1.064539
C     -0.564516   -0.355179   -0.304932
C      2.971788    0.882598   -0.442504
C      1.807082    0.011989   -0.247689
C      5.321273    1.223956    0.142397
C      2.109198   -1.359212    0.208567
C      4.126263    0.550065    0.217476
C     -2.910590   -0.137553   -0.131154
N      6.212057    0.595634    0.930934
N     -1.746946    0.385528   -0.009254
N      0.898885   -2.097747    0.524047
N     -4.076408    0.626186    0.171323
O     -3.029844   -1.451758   -0.559921
H     -5.178175   -2.081753    0.103396
H     -4.117198   -1.669591    1.567523
H     -5.897816   -1.773962    1.690235
H     -4.920512    1.614520   -2.041743
H     -4.889984    3.347119   -1.618123
H     -6.157757    2.327887   -0.866660
H     -0.500439   -3.061399   -0.759309
H      1.067390   -3.966911   -0.442588
H      1.089810   -2.556576   -1.509921
H     -5.442055    0.481397    1.762469
H     -6.146620    0.127581    0.136509
H     -4.398007    2.628461    0.793924
H     -3.135519    2.406441   -0.452865
H      4.191016    3.572304   -2.004429
H      2.088785    2.236159   -1.765671
H      6.240024    2.882493   -0.761806
H      3.382795   -2.410446    1.628416
H      2.564098   -0.903490    2.214625
H      0.466570    1.533403   -0.837101
H      6.011920   -1.187908    2.192647
H      0.066742   -0.616829    1.714867
H     -1.064996   -1.946070    1.107058
H     -0.661041   -0.932413   -1.257796
H      2.631141   -1.866876   -0.660230
H      7.195006    0.853866    1.089071
H     -2.470724   -1.823731   -1.315749
