26

C      3.440555   -0.212784   -1.215787
C      2.242645   -0.844643   -1.417054
C      3.619747    0.658241   -0.145792
C      1.215591   -0.599456   -0.535773
C      2.582272    0.909401    0.749101
C     -2.582993   -0.138683   -0.793029
C     -3.752252   -0.917009   -0.250236
C     -0.868954    1.253904    0.807533
C      1.398454    0.264768    0.523136
C      0.271982    0.491877    1.433639
C     -1.461562   -0.908906    1.139009
N     -0.390689   -0.768508    1.799672
N     -1.676503    0.170173    0.276679
S     -2.826784   -2.018996    0.902802
H      4.251920   -0.400581   -1.904083
H      2.066426   -1.526217   -2.234965
H      4.551370    1.156238    0.019546
H      0.264157   -1.104424   -0.699779
H      2.706180    1.580503    1.581147
H     -2.073982   -0.814799   -1.534722
H     -2.968771    0.759441   -1.272947
H     -4.235928   -1.484752   -1.037900
H     -4.421355   -0.312228    0.383461
H     -1.441450    1.838238    1.577677
H     -0.473081    1.919678    0.015467
H      0.563008    1.049525    2.356131
