36

C     -5.874027    0.404195    0.440774
C     -1.225309   -0.183396   -1.163072
C     -0.988269    0.495683    1.067335
C     -2.528663   -0.571109   -0.933659
C     -2.311339    0.104991    1.310993
C      1.779002   -1.473211    0.427429
C     -0.426698    0.355181   -0.179794
C     -3.083061   -0.430997    0.302773
C      1.917728   -0.370986   -0.581894
C      0.965796    0.764856   -0.441994
C      5.389041    1.136193   -0.568001
C      3.981929    0.823014   -0.129423
Cl     5.723328    0.328224   -2.127635
Cl     6.549943    0.519663    0.623084
N      3.240656    0.055212   -0.796178
O      2.513889   -2.597677   -0.021173
O      1.039963    1.493946   -1.660015
O      3.527246    1.409142    1.035691
O     -4.738881   -1.359841    2.115165
O     -5.075962   -2.067884   -0.186336
S     -4.724630   -0.893864    0.685985
H     -6.895614   -0.003453    0.273109
H     -5.938147    1.104493    1.318261
H     -5.580088    1.033863   -0.427172
H     -0.838358   -0.315987   -2.155958
H     -0.417451    0.911055    1.883730
H     -3.123551   -0.989166   -1.729081
H     -2.699748    0.239265    2.312087
H      2.256343   -1.206341    1.381305
H      0.752341   -1.762783    0.635462
H      1.612792   -0.870579   -1.590830
H      1.333635    1.480537    0.312254
H      5.563909    2.213319   -0.697095
H      3.290602   -2.204536   -0.513540
H      1.960684    1.503739   -1.991725
H      3.070974    0.925238    1.769137
