24

C     -3.050788   -0.673884    0.460056
C      3.229872    0.287489   -0.600203
C      2.679541   -0.916073   -0.238135
C      2.511053    1.456206   -0.469517
C      1.395311   -0.952187    0.260576
C      1.219461    1.381613    0.036828
C     -1.660536   -0.503549   -0.083333
C      0.645125    0.191374    0.406466
C     -0.729844    0.100787    0.946909
N     -1.696619    0.329895   -1.265737
O     -0.736656   -0.752279    2.071326
H     -3.166128   -1.651721    0.976938
H     -3.746587   -0.642861   -0.410473
H     -3.309942    0.105742    1.199692
H      4.222003    0.322634   -0.986386
H      3.263444   -1.819698   -0.349992
H      2.948757    2.385276   -0.753955
H      0.985942   -1.923267    0.539397
H      0.638944    2.283266    0.147651
H     -1.307254   -1.514209   -0.405146
H     -1.138528    1.077128    1.243279
H     -0.776107    0.844085   -1.307920
H     -2.467371    1.054250   -1.190827
H      0.046908   -0.470014    2.612655
