23

C     -2.289716    1.169215   -0.384606
C     -2.835686   -0.228424   -0.304600
C      0.491498   -0.217240    0.889489
C     -0.349043   -1.467403    0.877753
C      1.282665   -0.067583   -0.391932
C      2.070655    1.185015   -0.291989
N      2.194030   -1.181028   -0.583465
O      1.488784    2.267962   -0.126635
O      3.445955    1.159838   -0.380957
S     -1.527813   -1.424662   -0.454278
H     -3.026109    1.778781   -0.991857
H     -2.228906    1.657312    0.614247
H     -1.348090    1.186784   -0.943429
H     -3.547140   -0.387354   -1.166920
H     -3.451080   -0.337287    0.610193
H      1.225032   -0.229103    1.749238
H     -0.088515    0.711269    1.038331
H     -0.840934   -1.648827    1.856174
H      0.359610   -2.321472    0.711100
H      0.641817   -0.040519   -1.288346
H      1.773349   -1.892058   -1.242713
H      2.525809   -1.584400    0.303045
H      4.033830    1.911186   -0.097844
