24

C     -0.812850   -1.399736   -0.784269
C      2.134798   -0.118468    0.788499
C     -1.775113   -0.570962    0.023036
C     -1.343546    0.858319   -0.049595
C      0.112004    1.086608    0.013730
C      0.996309   -0.064443   -0.242792
O      2.923861   -1.212979    0.422777
O     -1.906687   -1.048249    1.308861
O     -2.018650    1.545377    0.980135
O      0.429441    2.132540   -0.885169
O      1.654964    0.103139   -1.483982
O      0.426283   -1.300933   -0.221430
H     -1.147148   -2.464876   -0.678311
H     -0.892578   -1.096143   -1.831362
H      2.721919    0.797298    0.805127
H      1.680262   -0.387604    1.775551
H     -2.780838   -0.677717   -0.467105
H     -1.783155    1.280327   -0.999346
H      0.359412    1.509817    1.030954
H      2.563936   -2.066426    0.763138
H     -2.680279   -1.659120    1.390090
H     -1.423335    2.147776    1.475055
H      0.287176    1.719642   -1.794524
H      2.273812    0.886814   -1.339070
