24

C      1.097795   -1.459951   -0.257740
C     -2.140827   -0.556773    0.753357
C      1.865081   -0.216688   -0.455615
C      1.166121    1.061652   -0.149299
C     -0.207529    0.886531    0.434175
C     -0.916237   -0.289280   -0.134838
O     -2.930404   -1.567824    0.234016
O      3.026316   -0.256765    0.356403
O      1.881855    1.873686    0.738957
O     -1.010942    2.015753    0.205525
O     -1.441082    0.082216   -1.383090
O     -0.235481   -1.428800   -0.256071
H      1.423337   -1.964852    0.701591
H      1.426202   -2.201413   -1.046792
H     -1.799126   -0.783954    1.801783
H     -2.769325    0.348991    0.842962
H      2.268309   -0.141679   -1.493205
H      1.026148    1.700929   -1.070802
H     -0.127002    0.773263    1.525210
H     -3.578515   -1.149194   -0.386498
H      3.268189   -1.218323    0.459779
H      1.288856    2.624963    0.992012
H     -0.734692    2.538658   -0.563627
H     -1.847046   -0.671146   -1.848193
