98

C      5.239606   -3.435409   -3.335302
C      6.268386   -1.514559   -2.513779
C     -3.560368    3.618939   -1.331087
C     -4.930079    1.766111   -1.454996
C      2.056991    5.227817    3.162929
C      5.342899    1.134936    3.362166
C     -7.800182   -2.391306    1.821699
C     -3.794326   -4.058985    0.578767
C      0.917468   -1.498538   -2.205798
C      0.754766   -2.971177   -0.391422
C     -0.924981    3.292022    1.145453
C     -0.423093   -1.114923   -1.973344
C     -0.577893   -2.556478   -0.202942
C      0.060421    3.982094    1.823921
C      5.442964   -2.551835    0.214823
C     -5.367704    2.121246    1.551051
C      5.693674   -3.252717   -1.050429
C     -5.156350    3.102397    0.421218
C      2.929254   -2.908456   -1.695716
C     -1.900395    1.659704   -0.312491
C      0.619851    2.077039   -0.227802
C      5.003827   -0.383778    1.176318
C     -6.053621   -0.283766    1.353624
C      3.447889    0.453611   -1.054630
C      1.526128   -2.439464   -1.411660
C     -0.687173    2.356082    0.142736
C      4.819474   -1.219067    0.061093
C     -5.112152    0.706236    1.075174
C     -1.228485   -1.619865   -0.973392
C      4.049233   -0.794739   -1.043907
C      3.978009   -1.887070   -2.071933
C     -3.227443    1.819543    0.253118
C      1.353240    3.679031    1.438639
C      4.407503    0.829372    1.141753
C      1.614381    2.745027    0.444873
C      3.633095    1.259213    0.065409
C     -5.698478   -1.510298    0.852564
C     -3.946611    0.478176    0.370708
C     -4.545161   -1.750828    0.152491
C     -3.565085   -0.755391   -0.143905
N      5.260797   -2.545681   -2.193228
N     -4.162627    2.600417   -0.530213
O      2.368054    4.355433    2.091316
O      4.620914    1.634316    2.255998
O     -6.622792   -2.552946    1.108324
O     -4.423112   -3.099363   -0.254546
O     -2.542964   -1.195293   -0.816844
O      3.042221    2.554548    0.245323
I      0.000000    0.000000    0.000000
I      0.000000    0.000000    0.000000
H      6.127570   -4.143256   -3.293211
H      4.361562   -4.017006   -3.513281
H      5.447773   -2.856689   -4.288118
H      6.144909   -0.670445   -1.831373
H      7.274933   -1.950664   -2.534889
H      6.054276   -1.167858   -3.569810
H     -4.110437    4.579827   -1.133666
H     -3.700816    3.449965   -2.440063
H     -2.483482    3.739848   -1.201759
H     -4.350179    0.912062   -1.851505
H     -5.928367    1.487049   -1.066938
H     -5.161139    2.410734   -2.331793
H      1.344380    6.020227    2.793111
H      1.466378    4.659756    3.934408
H      2.912939    5.750241    3.586563
H      5.292224    1.854721    4.227943
H      4.923905    0.158843    3.716677
H      6.413518    0.963565    3.168122
H     -8.154752   -3.412492    2.161398
H     -8.590001   -2.043194    1.106070
H     -7.782846   -1.680536    2.653378
H     -3.339339   -3.616430    1.488983
H     -3.080456   -4.682192    0.011203
H     -4.598933   -4.734439    0.948938
H      1.268277   -0.902480   -3.101625
H      0.987240   -3.745999    0.402712
H     -1.927144    3.555257    1.449907
H     -0.723472   -0.334047   -2.730014
H     -1.016945   -3.121338    0.672481
H     -0.154406    4.696176    2.594533
H      6.451248   -2.402197    0.711242
H      4.899480   -3.166581    0.981916
H     -6.439445    2.169442    1.829205
H     -4.775842    2.362973    2.446781
H      5.299085   -4.296439   -0.976615
H      6.804012   -3.442947   -1.229930
H     -4.889750    4.088803    0.837655
H     -6.139363    3.251221   -0.118872
H      2.858414   -3.747491   -2.480624
H      3.471181   -3.443061   -0.895030
H     -2.092814    1.594397   -1.391228
H     -1.679322    0.610183    0.163497
H      0.885142    1.403997   -1.118001
H      5.609939   -0.728879    2.020913
H     -6.936142   -0.042527    1.902552
H      2.869110    0.837097   -1.955518
H      3.836050   -1.575976   -3.138528
H     -3.148126    2.207399    1.260081
