42

C     -4.872864    2.136093   -0.780756
C     -3.672278    1.477242   -0.139685
C      6.380823    1.000985   -0.885236
C      5.654917    1.790316   -1.748645
C      5.755684    0.114393   -0.031339
C      4.273446    1.685684   -1.753086
C      3.782544   -0.896366    0.840744
C     -0.815255    0.096044   -0.541300
C      1.413842   -1.801248    1.573010
C     -3.602308   -1.769721    1.144016
C      4.362655   -0.009945   -0.016615
C      2.382518   -0.988857    0.822435
C     -2.208314   -1.320872    0.791891
C     -2.066766   -0.358527   -0.178408
C      3.669508    0.784506   -0.882607
C      0.255654   -0.466472    0.118576
C      1.685180   -0.186457   -0.052006
C     -1.112297   -1.836212    1.405567
C     -4.321646   -0.791221   -0.903102
C     -3.259454    0.227902   -0.879234
N      2.331296    0.682442   -0.886180
N      0.116597   -1.405719    1.065304
O     -1.290997   -2.722869    2.295474
O     -5.276531   -0.678581   -1.703290
O     -2.869434    0.551864   -2.172838
O     -4.313046   -1.900526   -0.057296
H     -4.859637    3.226499   -0.622643
H     -4.915043    1.863097   -1.856097
H     -5.789032    1.698072   -0.317308
H     -2.835280    2.202823   -0.115158
H     -3.942915    1.270374    0.906623
H      7.473365    1.060333   -0.857848
H      6.137426    2.489542   -2.422930
H      6.308033   -0.514095    0.654066
H      3.690945    2.306565   -2.433156
H      4.320375   -1.528657    1.528868
H     -0.687068    0.857891   -1.307974
H      1.597161   -2.892687    1.463076
H      1.508849   -1.518411    2.646368
H     -3.575308   -2.702919    1.738739
H     -4.071461   -0.972847    1.742353
H     -2.743884   -0.259457   -2.721006
