104

C      5.511573    2.563153   -1.364337
C     -3.548459   -2.413052    0.095720
C     -2.997132   -1.111359   -1.700149
C      3.991452   -3.842989    4.129567
C     -6.490964    4.583528   -3.036055
C      2.189716    1.981255   -0.756690
C      1.271697    0.679618   -2.480839
C     -2.063595   -1.743718    2.746567
C      0.876388    2.307612   -0.380978
C     -0.043855    1.032333   -2.068413
C     -1.438341   -2.827524    3.294977
C      6.577735   -0.303785    0.369045
C     -5.841222    0.193245   -0.459465
C      6.282654    1.171803    0.337141
C     -5.136692   -1.044159   -0.860691
C      3.819121    0.804866   -2.320819
C     -2.402091    0.186240    1.403838
C     -0.248825   -1.272966    1.228572
C      5.199561   -1.742794    1.745966
C     -5.537508    2.383607   -1.564908
C      3.024919   -1.363176   -0.012705
C      2.409130    1.145520   -1.836119
C     -1.499522   -0.945683    1.714491
C      5.278440   -0.960242    0.661674
C     -5.024077    1.347184   -0.852536
C     -0.267237    1.856724   -1.009098
C      4.203089   -0.736173   -0.254495
C      4.667259    0.270987   -1.243043
C     -3.408069   -0.004608    0.396871
C     -0.209640   -3.123210    2.799649
C      0.400588   -2.354116    1.771250
C      3.956685   -2.391486    1.997759
C      2.888998   -2.173684    1.092004
C     -4.702339    3.419524   -1.916689
C     -3.689419    1.269931   -0.453079
C     -3.368854    3.353578   -1.528629
C     -2.828630    2.258523   -0.781898
N      5.256559    1.403662   -0.583239
N     -3.732421   -1.078905   -0.421033
O      0.438116   -4.242242    3.356404
O     -2.624932    4.448619   -1.930145
O      3.935697   -3.132512    3.063395
O     -5.159543    4.513729   -2.643374
O     -1.522560    2.304289   -0.488909
O      1.690505   -2.863401    1.452431
Cl     0.690676    0.000000    0.000000
Cl     0.689148    0.000000    0.000000
O     -0.005139    0.387343   -0.000000
O     -0.007641    0.364197   -0.000000
O     -0.002770    0.375136   -0.000000
O     -0.000122    0.384382   -0.000000
O     -0.008213    0.380175   -0.000000
H      6.112639    3.328881   -0.755655
H      6.170546    2.321985   -2.220934
H      4.630364    3.161662   -1.671038
H     -4.003983   -3.169908   -0.627290
H     -4.116288   -2.496025    1.041691
H     -2.519892   -2.739229    0.213023
H     -2.017547   -1.615420   -1.606222
H     -2.905100   -0.134218   -2.149825
H     -3.553153   -1.756360   -2.437067
H      4.757987   -4.718875    4.125522
H      3.070500   -4.401070    4.489545
H      4.353254   -3.315781    5.090793
H     -6.673974    3.888344   -3.884205
H     -7.162941    4.357586   -2.191401
H     -6.669423    5.607776   -3.441074
H      2.928613    2.514505   -0.064463
H      1.164855   -0.009156   -3.372483
H     -3.065727   -1.522953    3.155798
H      0.920855    3.003456    0.503598
H     -0.772318    0.522974   -2.754541
H     -1.898419   -3.424251    4.078686
H      7.032706   -0.590721   -0.601452
H      7.302353   -0.478180    1.207687
H     -6.179522    0.207471    0.610002
H     -6.817912    0.326895   -1.008331
H      6.007974    1.583967    1.331876
H      7.195002    1.734469    0.011834
H     -5.649942   -1.923268   -0.363113
H     -5.204022   -1.266611   -1.946152
H      4.283714    1.683815   -2.886610
H      3.858342    0.089048   -3.195051
H     -1.922451    1.219413    1.399272
H     -3.003702    0.435170    2.404139
H      0.180168   -0.682064    0.353348
H      6.041264   -1.894148    2.425722
H     -6.589622    2.404680   -1.864558
H      2.146711   -1.289217   -0.756694
H      5.537681   -0.243107   -1.766069
H     -4.386171   -0.006145    1.089066
H      1.332623   -4.523136    2.987738
H     -0.690676    0.000000    0.000000
H     -0.689148    0.000000    0.000000
H     -0.801354   -0.195562   -0.000000
H      0.806494   -0.191781    0.000000
H     -0.824101   -0.184633   -0.000000
H      0.831743   -0.179564    0.000000
H      0.813937   -0.186631    0.000000
H     -0.811166   -0.188505   -0.000000
H      0.815005   -0.192153    0.000000
H     -0.814884   -0.192230   -0.000000
H     -0.807048   -0.192999   -0.000000
H      0.815261   -0.187175    0.000000
