28

C     -3.598654    1.627901   -0.257018
C      1.827712   -1.171190   -0.629382
C      2.934382   -0.407120   -0.974662
C     -0.277799   -1.506349    0.546154
C      1.008111    0.629436    0.685587
C      0.864773   -0.647388    0.202986
C     -1.378837   -1.386866   -0.471774
C      3.088166    0.871932   -0.497765
C      2.115279    1.372815    0.330634
C     -1.868857   -0.009500   -0.561250
N     -2.463103   -2.263306   -0.041432
O      4.174404    1.617421   -0.838776
O      2.223575    2.661445    0.840074
O     -1.126981    0.895537   -1.000702
O     -3.173484    0.285129   -0.151044
H     -3.454992    2.090064    0.745483
H     -2.976721    2.172897   -0.990202
H     -4.671942    1.691177   -0.555147
H      1.744106   -2.170688   -1.024756
H      3.657520   -0.863017   -1.627737
H      0.070086   -2.571487    0.619314
H     -0.686794   -1.216376    1.556367
H      0.267923    1.055853    1.340691
H     -0.989478   -1.770788   -1.441509
H     -2.079453   -3.181814    0.224410
H     -3.178141   -2.384554   -0.790576
H      4.925674    1.335165   -1.431684
H      3.023525    3.243673    0.603799
