46

C     -6.037602   -0.845800    2.211278
C     -4.613281   -0.210396   -1.639178
C     -1.525331    0.696247    2.315809
C     -2.808795    0.338056    2.574657
C      1.844956   -1.811468   -0.893480
C      0.856118   -1.244610   -1.887280
C      0.375179    0.908038    0.802315
C      4.211736   -0.983943   -0.566163
C      3.243717    1.542767   -0.261838
C     -1.174499   -0.190362   -1.328661
C      6.898646    1.341176    0.236144
C     -1.013900    0.509979    1.028164
C      2.856630   -0.748565   -0.645960
C      2.359312    0.529807   -0.492815
C     -1.772372   -0.022165    0.026156
C      0.890313    0.805644   -0.579599
C     -3.615207   -0.215180    1.556085
C      5.120994    0.040442   -0.331596
C      4.621144    1.316638   -0.178603
C     -3.062744   -0.384276    0.279934
N      0.209939   -0.076672   -1.434297
O     -4.830630   -0.546123    1.832752
O     -3.818817   -0.921670   -0.743294
O      6.501381    0.062367   -0.210761
O      5.730708    2.112162    0.038675
H     -6.081966   -1.635829    3.020444
H     -6.749526   -1.233529    1.405668
H     -6.573375    0.062608    2.650031
H     -4.792188    0.845872   -1.348640
H     -5.617373   -0.657635   -1.815806
H     -4.119789   -0.187834   -2.647539
H     -0.911654    1.121365    3.103767
H     -3.245361    0.471266    3.577227
H      2.304368   -2.739654   -1.276218
H      1.329070   -1.984892    0.088362
H      1.421865   -1.087607   -2.833067
H      0.069092   -2.040148   -2.027734
H      1.084311    0.404443    1.520378
H      0.439141    1.991430    1.122308
H      4.556302   -1.997929   -0.691905
H      2.887734    2.554805   -0.136634
H     -1.674787    0.501171   -2.064522
H     -1.493355   -1.216591   -1.689532
H      7.759154    1.737062   -0.343434
H      7.125569    1.257253    1.317355
H      0.835172    1.832279   -1.053591
