50

C     -3.305798   -2.218150   -0.369269
C     -2.150978   -1.533375    1.529629
C      5.927354   -2.043484    0.531140
C     -0.534067    5.514845    0.421419
C      1.879317   -2.650535   -0.328274
C      3.197914   -2.437006   -0.045833
C     -3.186392    1.122153   -0.675507
C     -3.479369    0.013560    0.314408
C     -0.432878   -1.880522   -0.663412
C     -1.391351    2.829276   -0.114181
C      0.976567   -1.570947   -0.339102
C     -1.803153    1.550722   -0.369677
C     -1.397474   -0.787671   -0.624095
C      3.648062   -1.180502    0.226910
C     -0.073757    3.118924    0.164360
C     -0.837106    0.541208   -0.338787
C      1.457784   -0.301024   -0.058142
C      0.502284    0.826481   -0.057114
C      2.771755   -0.075833    0.225091
C      0.898847    2.107116    0.196044
N     -2.575007   -1.088575    0.209772
O      3.307997    1.135730    0.507960
O      2.154679    2.514335    0.479717
O      5.012597   -0.987594    0.514814
O      0.346108    4.418257    0.424412
Cl     0.689467    0.000000    0.000000
H     -3.020827   -2.360402   -1.435976
H     -3.094558   -3.161061    0.143204
H     -4.398907   -2.059062   -0.329694
H     -2.942717   -1.209193    2.236088
H     -1.207213   -1.049455    1.843065
H     -2.119693   -2.640570    1.590199
H      6.958489   -1.600588    0.529904
H      5.822718   -2.728694   -0.358420
H      5.864789   -2.625547    1.488660
H     -0.047525    6.314041    1.048871
H     -1.496226    5.266890    0.935570
H     -0.684972    5.952667   -0.569052
H      1.467549   -3.633900   -0.552954
H      3.885781   -3.283168   -0.041153
H     -3.306261    0.735973   -1.718779
H     -3.918611    1.944867   -0.524908
H     -4.526789   -0.340404    0.229950
H     -3.296733    0.475792    1.329785
H     -0.801367   -2.749260   -0.055029
H     -0.378387   -2.330329   -1.708193
H     -2.133710    3.620786   -0.135733
H     -1.859033   -0.681144   -1.657467
H      4.320270    1.204368    0.711408
H     -0.689467    0.000000    0.000000
