37

C      1.055843    0.968588    0.571946
C      0.951177   -1.367429    0.343060
C     -0.326689    1.024798    0.411407
C     -0.431150   -1.296934    0.185096
C     -3.724581    2.051271   -0.639750
C     -4.146508   -1.826006    0.583257
C     -3.192174    1.200064    0.445250
C     -3.248004   -1.162314   -0.442516
C      3.184163   -0.320318    0.701734
C      1.702650   -0.246186    0.536589
C     -1.110796   -0.096272    0.214811
C      3.811679   -0.227882   -0.667855
C      5.289288   -0.296887   -0.532498
Cl    -4.979598    1.311626   -1.640375
Cl    -4.919649   -3.198799   -0.279646
N      3.408445    1.002422   -1.324317
N     -2.545217   -0.025211    0.079815
O      5.806008   -1.291000    0.017639
O      6.100185    0.718584   -1.004677
H      1.635131    1.870003    0.722345
H      1.451183   -2.329948    0.315261
H     -0.745328    2.012062    0.437362
H     -0.957349   -2.217429    0.047384
H     -2.935734    2.545735   -1.255099
H     -4.232933    2.930752   -0.136067
H     -3.617789   -2.157752    1.476606
H     -4.982513   -1.173730    0.911327
H     -4.094178    0.865296    1.076168
H     -2.530992    1.804267    1.096597
H     -2.618870   -1.946518   -0.892609
H     -3.950956   -0.885305   -1.281706
H      3.493215   -1.232014    1.234531
H      3.501540    0.568007    1.287430
H      3.442188   -1.078844   -1.262321
H      3.375376    0.875902   -2.357021
H      4.050977    1.785109   -1.068619
H      7.031961    0.842294   -0.641984
