28

C      2.897213    1.130059    1.498966
C      2.513132   -1.197416    0.533338
C     -1.880687   -2.039545   -0.527476
C     -2.007634   -0.083396    1.034303
C      0.876409    0.590078    0.187266
C      2.032573    0.206262    0.714575
C      0.014552   -0.317071   -0.590399
C     -1.119332    0.231909   -1.386760
C     -1.502718    1.642256   -1.377909
C     -1.361684   -0.649376   -0.208172
O     -1.487036    2.377299   -0.346110
O     -1.930377    2.313874   -2.541928
H      3.808917    1.358157    0.902723
H      3.212127    0.607432    2.432233
H      2.389858    2.091269    1.717394
H      3.057144   -1.321394   -0.434637
H      3.216240   -1.439468    1.352596
H      1.626674   -1.863009    0.592793
H     -2.805730   -2.290998   -0.002656
H     -1.115665   -2.808332   -0.272923
H     -2.063401   -2.159984   -1.622843
H     -3.087150    0.117692    0.816068
H     -1.958964   -0.837298    1.843935
H     -1.540719    0.827463    1.402759
H      0.594120    1.616586    0.358919
H      0.608975   -1.174453   -1.029391
H     -1.212961   -0.240827   -2.409410
H     -1.773875    3.312232   -2.637253
