49

C      3.061846    2.177088    0.946918
C     -2.722188    4.614101   -0.284179
C      2.217130    0.983029    1.263347
C     -2.803932   -3.481643    1.211104
C     -3.942046   -2.712185    1.313265
C      3.373608   -1.342549   -0.728247
C     -1.618046   -2.933103    0.704886
C     -3.902224   -1.401790    0.915510
C      2.925017   -0.115157   -0.754268
C     -0.269941   -1.310494   -1.723722
C      2.645866   -2.368021    0.057018
C      0.913928   -2.231118   -1.525761
C      1.077961    1.390388   -0.848246
C     -0.348940    1.628165   -0.558340
C     -1.570553   -1.613285    0.300293
C     -2.735447   -0.885750    0.426076
C     -1.109125    0.581583   -0.311636
C     -0.882514    3.012118   -0.553320
C      0.811586   -0.844873    0.312922
C      1.701147    0.286689   -0.015781
C     -0.543508   -0.764071   -0.331409
N     -2.469166    0.483467    0.042492
N      1.237849   -2.151333   -0.102952
O     -0.116793    3.970641   -0.794422
O     -2.202943    3.300280   -0.291708
H      3.530241    2.179064   -0.045011
H      2.498276    3.152418    1.035029
H      3.914996    2.261508    1.676194
H     -2.022890    5.320461    0.222480
H     -3.687164    4.662252    0.229192
H     -2.886270    4.930752   -1.345091
H      1.303132    1.353278    1.803070
H      2.693980    0.253161    1.936967
H     -2.837401   -4.531546    1.531648
H     -4.878342   -3.094364    1.696552
H      4.288810   -1.584719   -1.295614
H     -0.776867   -3.577852    0.651897
H     -4.820624   -0.796597    1.002551
H      3.492017    0.621106   -1.351316
H     -0.064843   -0.566037   -2.480265
H     -1.133824   -1.925526   -2.068717
H      2.977867   -2.442427    1.092009
H      2.879501   -3.353516   -0.423965
H      0.662394   -3.264571   -1.812917
H      1.795083   -1.913016   -2.144884
H      1.593345    2.373722   -0.602342
H      1.264925    1.278075   -1.934135
H      0.665403   -0.860569    1.418128
H     -3.180316    1.252763    0.035411
