49

C     -4.177375   -3.606231   -0.743027
C      5.493677    1.201238   -0.444834
C      3.371564   -2.903205    0.943709
C     -0.022825   -2.540379    1.179599
C      0.833887    3.021205   -0.301709
C     -1.123092   -0.772615   -1.005584
C     -0.621222    3.238690   -0.446857
C     -2.284474   -1.506441   -0.981776
C      2.667636    1.473840   -0.345103
C     -3.133936    1.054496    0.611884
C      1.295768    1.616196   -0.299835
C     -0.919109    0.364375   -0.254114
C     -1.831067    1.273411    0.309418
C     -1.495326    2.678496    0.657873
C     -3.869297   -0.089354    0.254497
C     -3.487826   -1.280882   -0.320681
C      3.247760    0.217506   -0.309885
C      0.537662    0.426974   -0.218515
C      2.439687   -0.924199   -0.224782
C      1.069927   -0.813398   -0.175997
N     -2.715746    3.448465    0.695120
O     -5.109534    0.011701    0.516844
O     -4.373343   -2.329782   -0.230749
O      4.626965    0.113141   -0.359890
O      2.985663   -2.190707   -0.187935
O      0.296718   -1.940389   -0.070508
H     -3.240031   -4.014461   -0.263696
H     -4.992810   -4.261615   -0.350048
H     -4.084636   -3.648907   -1.839196
H      5.116378    1.889090   -1.234495
H      5.649266    1.726738    0.518341
H      6.493539    0.813802   -0.783662
H      2.643114   -3.705121    1.128831
H      3.404891   -2.258229    1.834438
H      4.343295   -3.400355    0.730120
H     -0.976190   -2.097695    1.521937
H      0.744459   -2.187958    1.899312
H     -0.147229   -3.620218    1.129657
H      1.339468    3.518727   -1.160476
H      1.221856    3.562120    0.618502
H     -0.295681   -1.005323   -1.633572
H     -0.804675    4.332560   -0.458450
H     -0.934717    2.864796   -1.444539
H     -2.253238   -2.390360   -1.566062
H      3.292205    2.361451   -0.408997
H     -3.616008    1.830686    1.165504
H     -0.946443    2.680183    1.606722
H     -3.208162    3.300375   -0.212799
H     -2.451394    4.467562    0.711819
