33

C      3.873091   -0.481028   -0.687639
C     -2.355547    1.252075   -0.536256
C     -3.076282   -0.948406   -0.786221
C     -2.077354   -0.283536    1.199573
C      0.713845    0.425834    0.886394
C     -0.773593   -0.428625   -0.842207
C      2.581212   -0.584836    0.016493
C      0.385700   -0.772748    0.035978
C      2.082124    0.835492    0.323479
N     -1.992996   -0.130981   -0.210910
O      2.862313    1.452887    1.273717
O      1.531156   -1.046809   -0.734904
Cl     0.000000    0.000000    0.000000
H      3.825779    0.325475   -1.442596
H      4.195288   -1.452262   -1.116875
H      4.655322   -0.193065    0.045330
H     -3.177736    1.315167   -1.272641
H     -2.586518    1.829928    0.388583
H     -1.471093    1.779340   -0.983665
H     -2.868318   -1.988835   -0.467193
H     -4.020812   -0.651665   -0.269807
H     -3.124404   -0.838724   -1.875170
H     -3.018335   -0.818147    1.530077
H     -2.168858    0.716628    1.720654
H     -1.261307   -0.803482    1.695303
H      0.940588    0.111391    1.943990
H     -0.004951    1.237616    0.833819
H     -0.423151    0.408227   -1.515905
H     -0.914301   -1.289543   -1.542869
H      2.600389   -1.104583    0.988454
H      0.214626   -1.700356    0.624766
H      1.943251    1.421092   -0.604041
H      2.910871    2.406477    1.060828
