21

C     -3.173703    0.048341   -0.306283
C     -2.249224   -0.468964   -1.195280
C     -2.668893    0.633945    0.836913
C     -0.890953   -0.406608   -0.958510
C     -1.311231    0.696502    1.074003
C      1.897391    0.741440   -0.689506
C     -0.393670    0.178787    0.183616
C      1.042639    0.276030    0.492633
C      2.033540   -0.638319   -0.117502
N      3.266062   -0.853729    0.619399
H     -4.232000   -0.017593   -0.523365
H     -2.628546   -0.935182   -2.103394
H     -3.400390    1.041331    1.536706
H     -0.159391   -0.812695   -1.655893
H     -0.940880    1.168927    1.992954
H      2.676062    1.497717   -0.507530
H      1.405038    0.837850   -1.680703
H      1.317092    0.769785    1.443387
H      1.730887   -1.511875   -0.727416
H      3.218199   -0.378803    1.562323
H      3.461972   -1.866886    0.723447
