49

C     -4.201640   -3.715657    0.494364
C      5.411214    1.346180    0.066627
C      3.602893   -2.964580    0.184054
C     -0.073480   -2.172427   -1.917819
C      0.778968    2.945788    0.671112
C     -1.013588   -0.992873    0.669463
C     -0.680239    3.076760    0.873981
C     -2.161372   -1.744215    0.579012
C      2.642818    1.501136    0.233587
C     -3.172767    1.055134   -0.384739
C      1.272036    1.593073    0.322498
C     -0.898669    0.283621    0.159024
C     -1.851301    1.255570   -0.150374
C     -1.574561    2.710932   -0.263985
C     -3.865775   -0.141886   -0.234079
C     -3.439114   -1.400030    0.165258
C      3.250046    0.302671   -0.114468
C      0.547038    0.414871    0.043460
C      2.485176   -0.839452   -0.385517
C      1.112316   -0.764396   -0.303040
N     -2.823063    3.407024   -0.276875
O     -5.100094   -0.017033   -0.522325
O     -4.423069   -2.370960    0.129036
O      4.629939    0.209889   -0.201658
O      3.162647   -1.999951   -0.727031
O      0.344639   -1.870613   -0.585455
H     -3.752180   -3.676227    1.530634
H     -5.117097   -4.296102    0.592816
H     -3.425376   -4.195379   -0.140120
H      6.487363    1.040609    0.158178
H      5.343754    2.075438   -0.769626
H      5.108699    1.766746    1.031671
H      4.666501   -3.231717    0.062718
H      3.030871   -3.909214   -0.031172
H      3.370447   -2.669499    1.211659
H     -0.806940   -1.388574   -2.197799
H     -0.588244   -3.144775   -1.927388
H      0.775685   -2.106271   -2.606343
H      1.266340    3.203891    1.651854
H      1.148264    3.718732   -0.040271
H     -0.140994   -1.326216    1.168871
H     -0.956642    2.542748    1.824385
H     -0.867859    4.162254    1.122556
H     -2.053323   -2.757200    0.875493
H      3.250357    2.381886    0.439940
H     -3.712663    1.922001   -0.717345
H     -0.993836    2.869577   -1.209241
H     -3.030346    3.942655    0.589471
H     -2.963774    3.966060   -1.145056
