33

C      2.892681    1.621354   -0.794451
C     -3.259205    0.087709   -0.084751
C     -1.411579    0.768863   -1.305071
C     -1.804474   -1.513090   -0.955658
C      1.019961   -1.124282    0.186959
C     -1.182845   -0.134253    0.909040
C      2.155500    0.949522    0.343812
C      0.275993    0.011102    0.852970
C      2.440699   -0.539821    0.238261
N     -1.863752   -0.225542   -0.350515
O      3.056115   -1.026807    1.389425
O      0.774143    1.100335    0.204510
Cl     0.000000    0.000000    0.000000
H      3.977865    1.520553   -0.590242
H      2.694260    1.095134   -1.753844
H      2.646330    2.694416   -0.824505
H     -3.779062   -0.834175    0.240875
H     -3.748175    0.511659   -0.972700
H     -3.362482    0.818582    0.744293
H     -2.267285    0.922170   -2.026430
H     -1.220060    1.750410   -0.824958
H     -0.525500    0.490809   -1.866180
H     -1.305102   -2.246535   -0.292091
H     -2.830238   -1.893960   -1.114970
H     -1.331212   -1.462553   -1.959348
H      0.795393   -1.247400   -0.876435
H      0.963910   -2.065835    0.759671
H     -1.603107    0.740253    1.448221
H     -1.456200   -1.023044    1.507832
H      2.506338    1.375483    1.285269
H      0.679985    0.047161    1.907769
H      3.009635   -0.792066   -0.658541
H      3.061473   -0.376149    2.123681
