43

C      5.144259    1.112420    0.129780
C      3.262139   -2.694655    0.329924
C     -1.012210   -3.368441   -2.605353
C     -4.451518    0.459983    1.360595
C      1.588594    2.065452    1.031325
C      3.737530    1.628527    0.016432
C      2.225384   -1.748209    0.835843
C     -1.211634   -2.485801   -1.425808
C      0.747239    1.329936    0.003097
C     -5.247797    1.511767    0.960611
C      0.512447   -0.095904    0.395686
C     -0.859856   -0.365479   -0.212358
C     -1.365777    0.991018   -0.596786
C     -3.488422    2.190356   -0.441546
N     -3.219332    0.326586    0.841979
N     -4.729009    2.363525    0.051021
N     -2.707356    1.158719   -0.049240
O      3.393713    2.073259   -1.088169
O      1.992447   -1.613411    2.070934
O     -1.904614   -2.935743   -0.477627
O     -6.532137    1.682760    1.476858
O     -2.977926    2.972230   -1.293764
O      2.900178    1.594305    1.103073
O      1.487575   -0.986739   -0.070790
O     -0.691012   -1.226528   -1.312900
O     -0.529672    1.900489    0.039135
H      5.242964    0.338231   -0.660799
H      5.359447    0.730075    1.144126
H      5.817673    1.974333   -0.046265
H      4.025626   -2.131278   -0.265560
H      2.805947   -3.440779   -0.350597
H      3.802960   -3.142194    1.174631
H     -0.115336   -3.054728   -3.200386
H     -1.887987   -3.193832   -3.281847
H     -0.999665   -4.428531   -2.354362
H     -4.866035   -0.230254    2.094730
H      1.598902    3.141791    0.803585
H      1.082165    1.964807    2.023062
H      1.137461    1.468031   -1.012635
H      0.450041   -0.114854    1.519420
H     -1.479322   -0.820614    0.587676
H     -1.333502    1.181644   -1.684547
H     -6.704571    1.917728    2.437818
