28

C      2.341921    0.164900    1.334564
C      3.476451   -0.057599   -0.945325
C     -0.991011    1.564557    0.620473
C     -2.302846    0.850103   -1.255642
C      1.076429   -0.366870   -0.686628
C      2.227635   -0.099677   -0.115169
C     -0.230596   -0.426878    0.085547
C     -1.344072   -0.949768   -0.456206
C     -2.336324   -1.723461    0.339011
C     -1.222095    0.503204   -0.358830
O     -2.887940   -2.719515   -0.185567
O     -2.663812   -1.366463    1.647401
H      1.425031    0.518464    1.810596
H      3.166608    0.921298    1.486866
H      2.726838   -0.755746    1.851972
H      3.311358    0.768530   -1.682031
H      4.344126    0.227005   -0.347950
H      3.669988   -1.015863   -1.436077
H     -1.213578    1.259412    1.688904
H      0.035496    2.046948    0.601742
H     -1.652139    2.441387    0.475287
H     -2.280216    0.459616   -2.319930
H     -2.313309    1.962402   -1.467040
H     -3.337684    0.656763   -0.850092
H      1.077776   -0.550287   -1.758760
H     -0.000027   -0.764183    1.137481
H     -1.221715   -1.399002   -1.484704
H     -2.882293   -2.149276    2.270107
