43

C     -3.041582    3.244838    0.949117
C     -2.830509   -3.550461    1.113841
C      2.036192   -3.876771   -2.256699
C      1.751418    3.030793    1.776229
C     -2.305811    0.435269   -1.520836
C     -2.423291    2.458117   -0.163604
C     -2.125018   -2.260692    0.997437
C      1.873508   -2.903019   -1.154232
C     -0.889682    0.025814   -1.404667
C      3.099367    2.927015    1.990790
C     -0.603427   -0.698537   -0.077407
C      0.911124   -0.853522   -0.282306
C      1.215331    0.522171   -0.858175
C      3.154624    1.289242    0.366589
N      1.145603    2.251300    0.853924
N      3.798770    2.041194    1.270412
N      1.831447    1.377567    0.142428
O     -1.479353    3.000510   -0.788047
O     -2.341112   -1.388666    1.888933
O      2.437970   -3.032170   -0.032051
O      3.786198    3.694859    2.920577
O      3.871708    0.463215   -0.289840
O     -2.842318    1.205856   -0.509686
O     -1.247373   -1.932647   -0.009544
O      1.078365   -1.783530   -1.307550
O      0.045561    1.030964   -1.350599
H     -2.178000    3.689939    1.521567
H     -3.637066    4.057495    0.488068
H     -3.670064    2.611177    1.577471
H     -3.881313   -3.489767    0.750594
H     -2.905351   -3.823657    2.201848
H     -2.351089   -4.368175    0.532029
H      1.214039   -4.618399   -2.273671
H      1.977904   -3.330779   -3.239785
H      3.033964   -4.358327   -2.229831
H      1.178816    3.755648    2.365641
H     -2.974050   -0.468395   -1.674035
H     -2.398115    0.958241   -2.525615
H     -0.598360   -0.744373   -2.178830
H     -0.838307    0.002282    0.724677
H      1.439639   -1.059592    0.638778
H      1.941916    0.431115   -1.696716
H      4.737728    4.036858    2.752778
