56

C      0.166568    2.670219    2.579571
C      1.670676   -1.457974   -2.005060
C      2.358756    2.570549   -2.994286
C      3.682896    1.450287   -1.341847
C      1.391005    1.804881    2.689260
C     -3.220401   -2.523934    3.107263
C     -3.392774    0.319292   -2.177587
C     -3.168570   -3.023644    1.836338
C     -2.187921   -1.795227    3.671563
C     -2.915924    1.217618   -1.224692
C     -2.725886   -0.859507   -2.437650
C     -2.050562   -2.804588    1.068465
C     -1.077571   -1.605745    2.840346
C     -1.752922    0.841461   -0.583336
C     -1.585360   -1.165959   -1.766658
C      0.209875   -1.868567    0.691949
C      1.358737    0.950902   -1.657940
C      1.416221   -0.403757   -0.972889
C     -0.982945   -2.088401    1.563526
C     -1.066121   -0.329794   -0.826543
C      1.336741    0.649014    1.729428
C      0.204057   -0.612838   -0.094541
N      2.614969    1.279563   -2.319649
O      2.311946   -0.128054    1.788856
O      0.309780    0.463686    0.866971
Cl     0.690639    0.000000    0.000000
H      0.019416    3.049859    1.552762
H     -0.721714    2.110036    2.929082
H      0.271924    3.554512    3.228581
H      2.641577   -1.133284   -2.508347
H      0.965368   -1.556982   -2.814033
H      1.969851   -2.444435   -1.542907
H      3.265351    3.105280   -3.252685
H      1.876529    2.253180   -3.967678
H      1.600411    3.167062   -2.470187
H      4.488557    2.073370   -1.819243
H      4.127028    0.433386   -1.188807
H      3.308159    1.846956   -0.399957
H      1.505119    1.447001    3.724571
H      2.298161    2.376762    2.442296
H     -4.118361   -2.688173    3.733132
H     -4.314576    0.580570   -2.709115
H     -4.031897   -3.580941    1.483779
H     -2.199515   -1.387777    4.672155
H     -3.436417    2.145902   -1.015847
H     -3.120982   -1.551181   -3.189257
H     -2.032020   -3.237705    0.055882
H     -0.268146   -1.051473    3.279754
H     -1.387936    1.560518    0.169853
H     -1.097206   -2.108349   -1.980054
H      0.284418   -2.790369    0.028347
H      1.110018   -1.994175    1.356934
H      1.137999    1.764361   -0.962419
H      0.605095    0.872081   -2.498139
H      2.348519   -0.365473   -0.369306
H     -0.690639    0.000000    0.000000
