57

C     -3.801032   -0.435730    0.318225
C      2.787907   -0.464150    0.476900
C     -1.173201    3.910705   -2.109423
C      3.820480    0.568550   -1.990331
C      3.149431    2.200534   -0.483155
C     -2.930557    0.596120    0.846583
C      0.071471   -1.628353    4.234514
C     -1.194034   -3.354574   -2.400198
C     -0.775606   -2.287539    3.373481
C      0.732613   -0.486927    3.836510
C     -1.825915   -2.140459   -2.641135
C     -0.371852   -3.475798   -1.303889
C     -0.946492   -1.777321    2.101448
C      0.531788   -0.014656    2.559802
C     -1.599695   -1.104713   -1.765888
C     -0.164251   -2.408953   -0.438031
C      0.633487    0.661752   -0.301804
C      1.922112    0.099271   -0.572966
C     -1.239694    3.078291   -0.882902
C     -0.315395   -0.636213    1.632152
C     -0.784042   -1.191286   -0.659591
C     -1.636461    0.978641    0.315673
C     -0.528560   -0.074526    0.279769
N      2.689564    1.130052   -1.293101
O     -0.963982    3.610864    0.211165
O     -1.578451    1.759631   -0.820762
H     -4.128893   -0.214476   -0.747066
H     -4.825000   -0.413233    0.825969
H     -3.521482   -1.476925    0.344925
H      3.759586   -0.783889   -0.013903
H      2.414671   -1.414291    0.896745
H      3.102047    0.257296    1.259795
H     -1.543183    3.351575   -2.992568
H     -1.760995    4.839136   -1.915079
H     -0.130215    4.236327   -2.301039
H      3.833568    0.977838   -3.028639
H      4.743412    0.886700   -1.469850
H      3.824546   -0.545169   -2.001749
H      3.253280    3.094662   -1.173324
H      2.502208    2.550588    0.317065
H      4.217886    2.058019   -0.135660
H     -2.801340    0.358517    1.957816
H     -3.528874    1.559740    0.926277
H      0.221308   -2.011435    5.238912
H     -1.336860   -4.200769   -3.056161
H     -1.299243   -3.190473    3.687629
H      1.397112    0.014732    4.537723
H     -2.472802   -2.052927   -3.507879
H      0.122121   -4.446730   -1.127903
H     -1.636796   -2.331614    1.441453
H      1.031526    0.887834    2.245267
H     -2.075331   -0.168177   -1.952172
H      0.497951   -2.632426    0.377516
H      0.774621    1.566204    0.365345
H      0.237912    1.129522   -1.250686
H      1.893243   -0.712061   -1.391219
H     -1.275616    1.712691    1.119408
