81

C      8.810697    0.754198    1.518507
C      9.087018   -1.186201    0.093922
C      4.471417    0.370146    1.153009
C      0.927816    1.095097    1.778024
C     -8.299141   -1.940951    1.184344
C     -5.660761   -2.786384    0.421751
C     -7.236286    2.583923   -0.630947
C     -1.964587   -0.747103   -2.110533
C      6.379603   -0.562152   -1.094154
C      2.201570    0.901975   -1.061590
C     -1.792853   -0.039330    1.052485
C      7.218652    0.319142   -0.277988
C      5.277988   -1.327714   -0.546012
C      3.421687    0.138455   -1.099940
C      0.891776    0.350609   -0.637019
C     -0.546681   -0.771823    1.034406
C     -4.666862    1.745978   -1.382327
C     -2.438187    0.674549   -0.035703
C     -3.570453    1.051458   -2.138110
C      8.034163   -0.340434    0.804343
C      4.082341   -0.516947    0.035231
C      0.732992   -0.030554    0.757856
C     -7.353411   -1.009014    0.526384
C     -6.101141   -1.403761    0.162209
C     -6.854567    1.165030   -0.345081
C     -5.564810    0.774985   -0.725759
C     -7.740417    0.299036    0.269343
C     -5.208647   -0.528151   -0.458060
C     -2.918292   -0.011955   -1.243831
O     -9.013427    0.706603    0.637266
O     -3.937452   -0.940596   -0.823760
H      8.595388    1.762175    1.092380
H      8.522405    0.820853    2.591913
H      9.892447    0.618372    1.485781
H      9.637789   -0.493184   -0.577892
H      9.820981   -1.519528    0.856999
H      8.644759   -2.022300   -0.461745
H      4.517725    1.449314    0.901967
H      3.648205    0.281934    1.936835
H      5.347878   -0.028321    1.673837
H      1.107094    0.677761    2.789311
H      1.761556    1.744250    1.510133
H      0.021004    1.723453    1.839449
H     -9.319505   -1.535534    1.210380
H     -7.966066   -2.239135    2.181286
H     -8.347655   -2.854965    0.528286
H     -5.672969   -3.404719   -0.483711
H     -6.195919   -3.247818    1.276145
H     -4.585257   -2.717114    0.752568
H     -7.750508    2.664853   -1.586529
H     -6.308575    3.215937   -0.680927
H     -7.817221    3.012521    0.231751
H     -1.186818   -0.066049   -2.547152
H     -1.580942   -1.683585   -1.710911
H     -2.569351   -1.064123   -3.029647
H      7.097549   -1.311124   -1.593084
H      6.017190    0.010572   -1.991689
H      2.296949    1.880112   -0.472117
H      2.004422    1.320363   -2.129057
H     -1.740506    0.708237    1.954685
H     -2.598714   -0.755457    1.496914
H      6.748722    1.207759    0.170691
H      7.999273    0.764026   -0.977057
H      4.792222   -1.892772   -1.397752
H      5.549247   -2.130233    0.181543
H      4.240819    0.795337   -1.602694
H      3.302395   -0.640917   -1.952212
H      0.743436   -0.594826   -1.256753
H      0.091988    1.085431   -0.916630
H     -0.381237   -1.224375    2.074180
H     -0.531021   -1.648583    0.312675
H     -5.214521    2.358761   -2.147879
H     -4.276425    2.529944   -0.668344
H     -1.982216    1.649083   -0.354887
H     -3.442747    1.074434    0.451749
H     -4.023440    0.557988   -3.014904
H     -2.773964    1.756004   -2.417347
H      7.487783   -0.906037    1.546786
H      3.450043   -1.348779    0.427885
H      1.547950   -0.773784    1.093929
H     -9.291387    1.645675    0.450122
