52

C     -3.595554    1.639843    1.319568
C      3.842122    3.075344    0.945649
C     -2.213636    2.015798    1.058177
C      3.851137   -3.126201   -0.091612
C      4.258975   -1.951308   -0.688603
C     -3.191136    0.126125   -1.481523
C      2.558792   -3.244952    0.402887
C      3.405145   -0.848357   -0.819874
C     -0.616229   -2.812407    1.340798
C     -2.178422    1.198643   -1.239319
C     -2.644197   -1.250790   -1.157518
C     -1.925675   -2.541753    0.704992
C     -0.159565    1.918316   -0.107812
C      1.732308   -2.156757    0.267854
C      0.423159   -1.998394    0.660005
C      2.134954   -0.982524   -0.327028
C      0.105280   -0.716459    0.272740
C     -1.251613   -0.235625    0.554059
C      2.174421    2.073303   -0.570379
C     -1.456656    1.137773    0.061570
C      0.956579    1.251290   -0.786334
N     -2.172365   -1.237136    0.192580
N      1.107105   -0.094966   -0.315157
O      2.786675    2.594866   -1.530994
O      0.768721    1.182243   -2.186245
O      2.686087    2.299335    0.698325
H     -3.886369    2.052477    2.332583
H     -3.827557    0.564673    1.382825
H     -4.325677    2.108899    0.619369
H      4.514919    3.048359    0.071210
H      4.319755    2.621581    1.862576
H      3.592507    4.143107    1.177046
H     -1.581036    2.036315    1.978447
H     -2.168093    3.045220    0.640910
H      4.532743   -3.937309   -0.013701
H      5.265499   -1.847035   -1.078311
H     -4.137792    0.333715   -0.981522
H     -3.418227    0.113501   -2.575034
H      2.187668   -4.126676    0.873464
H      3.714914    0.058030   -1.279787
H     -0.603323   -2.665584    2.439230
H     -0.391843   -3.910400    1.198038
H     -1.522238    1.219313   -2.142835
H     -2.725417    2.170689   -1.283365
H     -1.849629   -1.561521   -1.832579
H     -3.490184   -1.954481   -1.294940
H     -2.088474   -3.270165   -0.141416
H     -2.729950   -2.777589    1.445586
H     -0.413835    2.867951   -0.663606
H      0.202836    2.290524    0.894713
H     -1.280795   -0.195983    1.699951
H      0.723185    0.257138   -2.505657
