45

C      1.804771    0.602596   -2.059890
C     -2.667769    0.809211   -1.489067
C      1.810580   -2.068860   -0.597313
C      0.364459   -1.998126   -0.167897
C     -2.514191   -1.723108    0.144440
C     -3.856634   -1.087726    0.518513
C      3.826028    1.514859    0.590258
C     -0.218063    1.769118   -0.234071
C      2.693627    1.629077   -0.073343
C     -1.557412    1.793171    0.491590
C      3.641595   -0.947484    0.476592
C      2.511252   -0.796886   -0.185292
C      4.386089    0.228801    0.915309
C     -0.285296   -0.670757   -0.433521
C     -1.578812   -0.601486    0.289961
C      0.527406    0.501805    0.076545
C     -3.608271    0.368758    0.682868
C      1.898562    0.503549   -0.543150
C     -2.363239    0.653529   -0.034620
O      5.449925    0.050408    1.537938
O     -4.311897    1.115815    1.287820
H      2.859234    0.692320   -2.414954
H      1.313430    1.547106   -2.321041
H      1.394321   -0.292365   -2.527588
H     -2.414733    1.856873   -1.786431
H     -2.186560    0.104731   -2.154889
H     -3.776706    0.729453   -1.691032
H      2.287343   -2.951344   -0.177820
H      1.828367   -2.127503   -1.702417
H      0.318989   -2.241471    0.921867
H     -0.173410   -2.820179   -0.682082
H     -2.314003   -2.512536    0.915285
H     -2.536006   -2.224784   -0.818701
H     -4.274102   -1.535259    1.445226
H     -4.532803   -1.298105   -0.337323
H      4.395080    2.385365    0.926113
H      0.316543    2.678541    0.071172
H     -0.431494    1.846673   -1.313810
H      2.396702    2.680241   -0.243911
H     -1.360089    1.692570    1.557336
H     -2.054716    2.744743    0.214631
H      4.028218   -1.943210    0.700952
H     -0.362648   -0.555456   -1.530658
H     -1.324573   -0.505673    1.389730
H      0.650907    0.403004    1.162016
