118

C     -5.737802   -2.029357    1.076809
C     -0.720326   -3.634885   -3.539570
C      6.515387   -1.282489    0.762988
C     -1.798669   -6.586284   -0.536132
C      0.343639    0.246296   -3.219632
C     -2.708774   -0.026039   -2.352164
C      1.850596    4.378559    2.154336
C      0.576274   -2.225585    0.440320
C     -1.944909    5.680670    0.184873
C     -3.731310   -4.320191    1.029584
C      5.474599    2.930340    2.935895
C      3.928218    1.175456    2.847208
C     -3.026063    6.367691    2.598604
C     -5.302844   -1.852120   -0.348579
C      6.027213    1.103513    0.840417
C      1.002087   -2.850479   -1.973064
C     -1.944975    3.341621    0.967186
C     -0.418389   -3.341723   -2.083538
C      5.653505   -0.177809    0.153014
C     -1.782332   -5.051376   -0.611681
C      0.421782    0.416152   -1.678996
C     -2.107088    0.291957   -1.030024
C      0.480130    3.871640    1.812759
C      4.898081    2.054844    0.821089
C     -3.952561   -2.450502   -0.664469
C     -0.764507    2.927354    0.106305
C     -0.597473   -4.663705   -1.375194
C      3.784956    1.775316   -0.146269
C     -0.768000    0.944032   -1.083990
C     -3.040368   -4.651159   -1.303772
C     -0.489206    5.003406    2.133307
C      1.422276   -0.476091   -1.156798
C     -2.396965   -0.612652    0.079974
C      3.449939    0.314618   -0.281745
C      1.297395   -1.920423   -0.861595
C     -1.762382    4.794011    1.428581
C     -4.037588   -3.956040   -0.380761
N      4.423995    2.323228    2.155908
O      0.339681   -5.434193   -1.473392
O      4.075965    2.369758   -1.374480
O     -3.648141   -5.746584   -1.960389
O     -0.595232    5.156639    3.522334
O     -2.046152   -0.187300    1.225806
O      2.659611   -2.267127   -0.507506
O     -5.313407   -4.429296   -0.773330
O     -2.844613    5.065336    2.237152
O      4.342249   -0.485448    0.435038
O      0.386593    3.600644    0.465534
O     -2.980514   -1.821817    0.045273
O     -0.535208    1.573897    0.125299
O      2.126786    0.050805   -0.047796
H     -4.868799   -1.998793    1.748488
H     -6.360014   -1.129405    1.382934
H     -6.424166   -2.880378    1.219622
H     -1.094447   -4.665785   -3.710549
H     -1.509985   -2.935498   -3.946773
H      0.174792   -3.423942   -4.149115
H      5.961897   -2.230196    0.606572
H      7.497761   -1.362740    0.275397
H      6.580810   -1.163635    1.874361
H     -1.312270   -6.904099    0.398634
H     -2.815325   -6.988804   -0.671994
H     -1.193219   -6.999358   -1.395593
H     -0.011460    1.173603   -3.696560
H      1.429512    0.147933   -3.524302
H     -0.127300   -0.665625   -3.532029
H     -2.553692    0.890435   -3.011990
H     -2.374078   -0.932427   -2.851362
H     -3.830015   -0.085162   -2.321891
H      2.566711    4.354459    1.334174
H      2.284431    3.868932    3.041832
H      1.807341    5.463917    2.469691
H      1.122952   -2.911371    1.116167
H     -0.401793   -2.671285    0.286399
H      0.441929   -1.291522    1.033509
H     -1.617633    6.721098    0.386311
H     -1.295997    5.281113   -0.616939
H     -2.989713    5.620209   -0.177962
H     -4.641375   -4.358279    1.702407
H     -3.402328   -5.406674    1.034058
H     -3.024725   -3.654217    1.539755
H      6.237103    3.332748    2.231970
H      5.958130    2.187788    3.611308
H      5.100374    3.811646    3.510039
H      4.656280    0.383381    3.061298
H      2.972473    0.788002    2.436013
H      3.625886    1.553241    3.876723
H     -3.926060    6.460654    3.256093
H     -2.149011    6.746134    3.138684
H     -3.130886    7.045563    1.703917
H     -5.194802   -0.736060   -0.491223
H     -6.080468   -2.168334   -1.075542
H      6.960925    1.545913    0.398156
H      6.235720    0.818796    1.918006
H      1.608844   -3.802082   -1.870509
H      1.388875   -2.402196   -2.912717
H     -1.987029    2.695951    1.846013
H     -2.878325    3.363538    0.378601
H     -1.154920   -2.611691   -1.753314
H      5.870747   -0.157524   -0.936877
H     -1.662595   -4.666154    0.420521
H      1.091799    1.386111   -1.707026
H     -2.780307    1.193631   -0.697770
H      0.266654    2.983831    2.447884
H      5.357922    3.057427    0.501088
H     -3.855570   -2.405416   -1.773511
H     -1.056914    3.294117   -0.921760
H      2.872036    2.276166    0.232329
H     -1.063454    1.841073   -1.769003
H     -2.804723   -3.942504   -2.137561
H     -0.000222    5.933442    1.740824
H      2.240707   -0.490581   -1.969761
H      3.654243    0.045765   -1.341720
H      3.708531    3.282650   -1.442140
H     -4.448933   -6.063637   -1.467109
H      0.139644    5.714091    3.856923
H      3.162635   -2.330029   -1.370130
H     -5.440269   -4.105064   -1.690817
