42

C     -2.854771    1.970556    1.116286
C      4.053977    1.900346    0.218917
C     -3.535380    1.073336    0.130347
C      4.139447    0.398084    0.228157
C     -0.652391    0.117085    0.268780
C      0.617654   -0.381377   -0.496942
C     -3.902820   -1.123904   -0.969755
C      3.142657   -1.733875   -0.379469
C     -3.041231   -0.337572    0.068854
C      2.943850   -0.232361   -0.450625
N     -1.732677   -0.450379   -0.408029
N      1.736927    0.191365    0.189747
O     -5.232830   -1.086156   -0.609369
O      3.202005   -2.157170    0.940987
Cl     0.686885    0.000000    0.000000
Cl     0.687275    0.000000    0.000000
H     -3.647532    2.531313    1.702117
H     -2.209705    1.476271    1.844447
H     -2.273327    2.797015    0.637511
H      3.748295    2.278427   -0.773240
H      3.260860    2.227009    0.942594
H      5.044487    2.314537    0.500126
H     -3.528365    1.554804   -0.881199
H     -4.621325    0.998208    0.432738
H      4.168144    0.035181    1.286845
H      5.049482    0.082866   -0.325182
H     -0.577791   -0.174413    1.332595
H     -0.662513    1.242791    0.142534
H      0.581354   -1.472434   -0.520561
H      0.547809    0.033149   -1.523785
H     -3.521228   -2.171187   -0.894070
H     -3.679068   -0.759222   -1.976861
H      4.153514   -1.937612   -0.817778
H      2.386009   -2.290286   -0.952265
H     -3.208405   -0.896454    1.011285
H      2.945300    0.051793   -1.510581
H     -1.547866   -1.096698   -1.188133
H      1.734389   -0.065334    1.198464
H     -5.655068   -1.984194   -0.651748
H      2.628131   -2.923507    1.136263
H     -0.686885    0.000000    0.000000
H     -0.687275    0.000000    0.000000
