40

C     -3.326304   -2.234521    0.246162
C      5.800965   -0.736674   -0.026031
C     -0.871479    3.379744    0.591715
C     -2.131792    2.866623    0.530771
C      0.230732    2.515638    0.425796
C      1.941442   -1.920093   -0.572465
C      3.206821   -1.476917   -0.378406
C     -3.732918    0.967947    0.255280
C     -3.699080   -0.095211   -0.819444
C     -0.469639   -1.459233   -0.748700
C     -2.346532    1.524400    0.312560
C      0.888926   -1.024262   -0.425055
C      0.004051    1.185181    0.208358
C     -1.518973   -0.756988    0.028854
C      3.463315   -0.171312   -0.041903
C     -1.293457    0.665979    0.150255
C      1.137395    0.298607   -0.080715
C      2.420680    0.737722    0.111820
N     -2.805832   -1.151232   -0.523529
O      2.799167    2.000489    0.447742
O      4.779439    0.218394    0.140329
H     -3.814179   -1.834940    1.156905
H     -2.468735   -2.855919    0.587825
H     -4.000957   -2.891603   -0.343164
H      6.779439   -0.264022    0.177614
H      5.718732   -1.112557   -1.073362
H      5.597319   -1.602516    0.650671
H     -0.660618    4.435512    0.763854
H     -2.991086    3.503721    0.652783
H      1.205248    2.950185    0.470609
H      1.703333   -2.930509   -0.835375
H      4.010358   -2.212024   -0.503636
H     -4.037979    0.560699    1.219493
H     -4.390128    1.779625   -0.118457
H     -3.481936    0.377439   -1.799783
H     -4.728185   -0.507552   -0.883683
H     -0.641127   -1.301179   -1.862178
H     -0.539335   -2.571048   -0.560508
H     -1.452116   -1.195177    1.090563
H      3.715026    2.337585    0.592676
