24

C     -2.401282    1.155819    0.286538
C     -3.024650    0.317185   -0.527669
C      3.306361    0.803382    0.205370
C      1.973093    0.938847   -0.171668
C     -1.184751    0.609659    0.936414
C      3.699349   -0.322449    0.905439
C     -2.389540   -1.025867   -0.642353
C      1.495323   -1.126573    0.839724
C      1.042472   -0.027179    0.140364
C     -0.348297    0.133775   -0.263582
N      2.778607   -1.246079    1.196725
N     -0.966256   -1.001722   -0.820196
H     -2.723487    2.148185    0.479115
H     -3.935386    0.596057   -1.070924
H      4.055853    1.547155   -0.027363
H      1.723533    1.840365   -0.717433
H     -0.610839    1.349066    1.500167
H     -1.494327   -0.259365    1.535337
H      4.752249   -0.435909    1.206705
H     -2.667919   -1.564058    0.312811
H     -2.876504   -1.617127   -1.449462
H      0.767501   -1.882992    1.084248
H     -0.392404    0.961019   -1.033197
H     -0.578700   -1.891192   -0.449972
