26

C     -2.899228    0.233674    1.252789
C      2.359239   -0.642453   -0.328697
C      1.822626   -1.832471   -0.343636
C      0.409047    0.378863    0.477644
C     -2.330404    0.304693    0.064448
C      1.652710    0.550232    0.095973
C      0.452616   -2.092166    0.065765
C     -0.307539   -0.909179    0.505809
C     -2.631595    1.448069   -0.795266
C      2.245988    1.876785    0.114459
O      0.442860   -3.048686    1.106193
O     -3.405435    2.341933   -0.427381
O     -2.038831    1.524087   -2.036166
O      1.570110    2.862996    0.495776
O      3.554030    2.102513   -0.279641
O     -1.462898   -0.705673   -0.337479
H     -2.695349   -0.593890    1.902315
H     -3.580332    0.987028    1.618672
H      3.398852   -0.531092   -0.653055
H      2.459276   -2.675988   -0.689194
H     -0.162650    1.255454    0.807121
H     -0.131650   -2.558848   -0.795080
H     -0.738245   -1.076076    1.537823
H      0.348990   -3.933951    0.714392
H     -2.479970    1.990288   -2.822934
H      4.147780    2.743859    0.255166
