43

C     -3.168707   -2.659537   -0.345667
C      5.694792   -1.216570   -0.269657
C      1.733483   -2.315516    0.216550
C      3.036814   -1.941175    0.055692
C     -3.743328    0.709730    0.569470
C     -3.877915   -0.410255   -0.429404
C     -0.629800   -1.942349    0.428025
C     -2.187496    2.657175    0.257389
C      0.894962    4.307025   -0.643838
C      0.715168   -1.374707    0.252355
C     -2.402604    1.313026    0.383629
C     -1.724278   -0.976387    0.494170
C      3.330284   -0.606227   -0.071651
C     -0.911516    3.146876    0.086290
C     -1.330932    0.443267    0.338855
C      1.038338   -0.031494    0.121470
C     -0.056911    0.930581    0.168076
C      2.333664    0.365762   -0.040267
C      0.197449    2.284350    0.037185
N     -2.742440   -1.272585   -0.504926
O      2.735141    1.642636   -0.174337
O      4.660485   -0.254115   -0.233701
O     -0.419155    4.430885   -0.065058
O      1.321442    3.060807   -0.139303
H     -2.978086   -2.927590    0.717419
H     -4.262269   -2.729143   -0.532764
H     -2.661048   -3.301722   -1.065476
H      5.824859   -1.710918    0.699579
H      6.627131   -0.697316   -0.599925
H      5.506722   -2.010970   -1.027430
H      1.516091   -3.384687    0.316751
H      3.816931   -2.710771    0.031798
H     -3.820693    0.309803    1.604254
H     -4.559729    1.430307    0.357907
H     -4.102001    0.069277   -1.422680
H     -4.797321   -0.987909   -0.169191
H     -0.841897   -2.757090   -0.308867
H     -0.587574   -2.500033    1.414669
H     -3.020176    3.349113    0.290951
H      1.579686    5.080605   -0.241560
H      0.820400    4.315151   -1.742280
H     -2.278664   -1.019676    1.478903
H      3.720697    1.892365   -0.293404
