51

C      1.415613   -1.402713    0.687091
C     -2.481162   -0.801485    1.288014
C      2.204267    1.481592    0.597261
C      0.775593    1.714130    0.847412
C     -2.212666    1.966324    1.138048
C     -3.688243    1.672785    0.933210
C      3.414400   -2.015275   -1.613062
C     -0.690867   -0.555318   -1.769475
C      1.990000   -1.598446   -1.660932
C     -1.991817   -0.895741   -1.140083
C      3.938686   -0.206343    0.079318
C      2.612770    0.438854   -0.346998
C      4.358131   -1.030477   -1.093512
C     -0.180277    0.672876    0.374611
C     -1.541141    1.189778    0.089003
C      0.319084    0.136124   -0.976612
C     -3.761613    0.637249   -0.196748
C      1.557308   -0.621679   -0.624269
C     -2.440065   -0.048735   -0.022507
O      5.450334   -0.906943   -1.622717
O     -4.850351   -0.187226   -0.063971
H      1.599189   -0.761413    1.567094
H      0.514330   -2.006990    0.723899
H      2.279987   -2.131076    0.678883
H     -1.816632   -1.673807    1.187719
H     -3.541205   -1.156671    1.412218
H     -2.204678   -0.203060    2.154950
H      2.704844    1.271351    1.590636
H      2.684003    2.456406    0.280450
H      0.559303    1.865258    1.947767
H      0.444247    2.687317    0.384958
H     -1.878241    1.810154    2.167719
H     -2.089923    3.063777    0.900438
H     -4.276719    2.560621    0.684183
H     -4.149037    1.199115    1.821547
H      3.697644   -2.351340   -2.653486
H      3.541833   -2.953492   -0.995612
H     -0.251172   -1.524442   -2.154598
H     -0.931909   -0.005926   -2.731756
H      1.383666   -2.539938   -1.495075
H      1.696479   -1.267632   -2.700019
H     -2.824469   -0.908077   -1.907219
H     -1.974799   -1.965598   -0.771298
H      4.664498    0.630538    0.150460
H      3.836154   -0.784846    0.994781
H      2.837629    0.882973   -1.360295
H     -0.297182   -0.176992    1.107464
H     -1.575517    1.683239   -0.889793
H      0.608765    1.088122   -1.520173
H     -3.785413    1.231981   -1.148435
H     -5.653657    0.341117    0.180233
