39

C      3.490691    0.184712   -1.063302
C      2.725234    0.194658    1.238334
C     -1.969074    3.533039   -0.002501
C     -2.203448   -3.027748    0.007725
C     -2.782859    1.262877    0.286966
C      0.127323   -2.524044   -0.279022
C     -2.547267   -0.193866    0.489578
C      1.323607   -1.700940   -0.480718
C     -0.323928    1.628479    0.291151
C      2.306500    0.530694   -0.192383
C     -1.738805    2.053704    0.202971
C     -1.114376   -2.056522   -0.197362
C      1.068367   -0.241352   -0.601051
C     -1.341912   -0.579886   -0.317388
C     -0.137728    0.140591    0.205014
H      3.491432    0.731258   -2.023673
H      3.596112   -0.895533   -1.182148
H      4.407853    0.545126   -0.513450
H      3.359805   -0.712243    1.257983
H      1.894454    0.194117    1.939001
H      3.416198    1.032776    1.547921
H     -3.029265    3.738532   -0.179111
H     -1.646137    4.049462    0.926497
H     -1.359029    3.914774   -0.850126
H     -1.803012   -3.887479    0.582342
H     -2.551915   -3.421470   -0.972527
H     -3.060723   -2.647442    0.577304
H     -3.781735    1.681702    0.208088
H      0.298854   -3.610891   -0.191552
H     -3.473354   -0.701150    0.150506
H     -2.335026   -0.420665    1.548521
H      1.808225   -2.059788   -1.435789
H      2.048765   -1.969755    0.333987
H      0.091820    2.030848    1.231928
H      0.197141    2.112614   -0.561456
H      2.136462    1.621147   -0.207713
H      0.867591    0.008803   -1.650886
H     -1.474059   -0.314172   -1.386129
H      0.017220   -0.224963    1.262472
