44

C     -1.016368    2.310872   -0.417023
C      2.530197    1.563463   -0.534367
C      3.896253    1.693693   -0.429267
C     -1.470077    0.605908    2.525750
C     -0.753597    1.780156    1.907728
C     -3.562299   -0.529499    1.658753
C     -2.229244   -1.006767   -0.723347
C     -5.775773   -1.924616   -0.803339
C      6.327676   -0.920651   -0.475894
C     -2.261164   -0.111167    1.491970
C      1.931665    0.349108   -0.849346
C     -1.588695   -0.347857    0.300169
C      4.721366    0.628309   -0.631641
C     -4.225096   -1.197963    0.632286
C     -3.550573   -1.428046   -0.545211
C      2.768080   -0.728946   -1.054072
C     -0.199026    0.154174    0.247146
C      0.520799   -0.085919   -1.027362
C      4.154812   -0.606199   -0.949569
C      1.896081   -1.850002   -1.362958
N     -0.269027    1.566321    0.580859
O      2.339869   -3.010052   -1.608359
O      6.110215    0.489213   -0.587867
O     -5.526267   -1.709200    0.572712
O     -4.466620   -2.103329   -1.357364
O      5.202822   -1.514483   -1.103225
O      0.576295   -1.444073   -1.341296
H     -1.529654    1.675720   -1.144956
H     -1.766832    2.955335    0.127762
H     -0.372408    3.019975   -0.976760
H      1.867392    2.402078   -0.375943
H      4.312547    2.649951   -0.184245
H     -0.740337   -0.107102    2.999740
H     -2.151626    0.999866    3.318281
H     -1.441870    2.648330    1.892601
H      0.109210    2.080089    2.570830
H     -4.050716   -0.326964    2.598967
H     -1.717113   -1.196211   -1.655746
H     -6.370046   -2.867955   -0.864365
H     -6.289660   -1.063643   -1.261513
H      6.361169   -1.145207    0.610701
H      7.271778   -1.133525   -0.992807
H      0.399537   -0.306196    1.089860
H      0.026331    0.439540   -1.868274
