52

C      2.547532    2.600313   -1.494080
C      2.885593   -3.764592    2.033729
C      5.497438   -0.098608    0.986684
C      1.246250    0.547815   -0.089019
C      1.332156   -1.495216    1.047857
C     -1.503846   -1.454614   -1.327463
C     -3.448240    0.366236   -1.896578
C     -2.196967    2.776069    2.259678
C     -3.394799   -2.337628   -4.324117
C      0.552867   -0.425812    0.592254
C     -1.714466   -0.428822   -0.404074
C     -2.708548    0.466427   -0.737980
C     -1.827751    1.978409    0.993364
C     -2.231806   -1.573393   -2.491919
C     -3.209163   -0.663000   -2.783683
C      2.625869    0.485025   -0.314943
C      2.670166   -1.614419    0.861512
C     -0.899497   -0.358511    0.841771
C     -1.388153    0.717557    1.698976
C     -3.037136    1.627989    0.164747
C      3.316533   -0.605378    0.169628
C     -0.422793    1.320023    2.650989
O     -3.443149    2.671160   -0.650636
O      0.683086    0.902502    3.056197
O      3.297072    1.488909   -1.008752
O      3.426723   -2.683018    1.321111
O      4.693132   -0.693046   -0.041606
O     -1.018606    2.516146    3.033752
O     -2.215483   -2.487944   -3.556184
O     -3.792030   -1.011433   -4.017041
H      3.185789    3.224339   -2.153638
H      1.696744    2.252944   -2.135442
H      2.125979    3.222580   -0.706224
H      2.564213   -4.597519    1.370606
H      2.092960   -3.450682    2.735082
H      3.710731   -4.169314    2.687218
H      5.635504   -0.800911    1.842671
H      6.461879    0.246494    0.612649
H      4.970026    0.797847    1.415700
H      0.752829    1.414504   -0.494621
H      0.839908   -2.306486    1.599011
H     -0.748250   -2.178449   -1.125389
H     -4.228596    1.093586   -2.128557
H     -3.083427    2.268760    2.693072
H     -2.333075    3.834946    2.050445
H     -3.113126   -2.448099   -5.399136
H     -4.181932   -3.065651   -4.051896
H     -1.054968    2.503306    0.447459
H     -1.117641   -1.336729    1.436848
H     -2.281367    0.337724    2.267879
H     -3.861926    1.375187    0.842985
H     -4.354240    3.012478   -0.380897
