52

C      5.409188    0.631752   -0.798079
C      5.066968    0.080416    1.547034
C     -1.177413   -1.448674   -1.357275
C     -3.943418    0.654245   -1.244390
C     -2.879174   -2.057237    1.027507
C      2.819992   -0.875705   -0.278224
C     -0.049946    1.900112   -0.593953
C      1.408728   -1.256526   -0.507739
C     -1.454770    1.537866   -0.891559
C     -1.440451   -1.675388    1.059227
C     -3.814054   -1.084811    0.433852
C      2.145404    1.398194    0.192886
C      4.498051    0.900480    0.383068
C      3.097608    0.501845    0.098330
C      0.759405    1.004787   -0.087236
C      0.424815   -0.393979    0.249435
C     -1.850071    0.487074    0.114162
C     -3.886093    1.285185    1.061503
C     -1.004629   -0.760477   -0.045074
C     -3.316591    0.261874    0.108709
O     -4.566166    0.876165    2.027732
O     -3.689958    2.644912    0.913464
H      5.469222   -0.480746   -0.900607
H      6.410182    1.015776   -0.531557
H      5.091300    1.125015   -1.716502
H      6.087895    0.490527    1.725571
H      4.450449    0.176900    2.450701
H      5.195915   -0.961887    1.196101
H     -0.478396   -2.327443   -1.345570
H     -2.179228   -1.866873   -1.466627
H     -0.861138   -0.838856   -2.226072
H     -4.112176    1.742217   -1.303422
H     -3.329906    0.348474   -2.084285
H     -4.948176    0.174547   -1.339646
H     -3.159930   -2.309669    2.081579
H     -2.924371   -3.056178    0.502372
H      3.296229   -1.529057    0.515417
H      3.429905   -1.074494   -1.212250
H      0.317995    2.921967   -0.795521
H      1.213119   -1.221566   -1.601260
H      1.258204   -2.303575   -0.123698
H     -1.456900    1.144715   -1.932946
H     -2.095664    2.419892   -0.767094
H     -1.166709   -1.183016    2.021011
H     -0.771484   -2.580889    1.006255
H     -4.322900   -1.580797   -0.449684
H     -4.689890   -0.966436    1.146035
H      2.371484    2.450031    0.475769
H      4.575571    1.965401    0.681832
H      0.666263   -0.536094    1.330513
H     -1.562576    0.883171    1.112271
H     -4.331715    3.346833    1.291531
