43

C      4.107773   -0.479710    0.419843
C     -3.672061   -3.233842   -0.877625
C     -3.751193    0.861433    0.941254
C      0.287281    4.518257    0.268148
C     -1.000492    4.114225    0.008514
C      1.270561    3.587935    0.462814
C     -1.330302    2.755785   -0.063567
C      1.365884   -2.836541   -0.389279
C      2.734300   -2.175897   -0.390086
C      2.006818    1.238254    0.718904
C     -0.998056   -2.279026   -0.511638
C      0.968611    2.231784    0.399563
C      0.292097   -1.848731   -0.340060
C     -0.331227    1.830708    0.134779
C      1.864132   -0.007604   -0.055824
C     -2.058541   -1.419009   -0.497953
C      0.494291   -0.484160   -0.150155
C     -0.591120    0.411261   -0.135157
C     -1.859127   -0.043415   -0.303411
N      2.766466   -1.043338    0.477402
O     -3.328505   -1.895873   -0.674770
O     -2.984807    0.740288   -0.290730
H      4.861263   -1.319110    0.456484
H      4.315372    0.221899    1.226685
H      4.217605   -0.037899   -0.598928
H     -3.598798   -3.555776   -1.934972
H     -4.746083   -3.343167   -0.549347
H     -3.106112   -3.940643   -0.244854
H     -3.079766    1.087350    1.784219
H     -4.369604   -0.027281    1.071546
H     -4.415458    1.725624    0.761674
H      0.527936    5.582665    0.319695
H     -1.748772    4.880233   -0.137840
H      2.303217    3.845204    0.669849
H     -2.334104    2.572272   -0.317348
H      1.291768   -3.422923   -1.328591
H      1.266710   -3.539376    0.450485
H      3.460270   -2.923540   -0.029349
H      3.049792   -1.877898   -1.411573
H      3.029795    1.692731    0.632028
H      1.840025    0.949297    1.809563
H     -1.200766   -3.343550   -0.666148
H      2.182928    0.231106   -1.114245
