48

C     -3.155445   -3.046287    0.056098
C      5.413366   -2.232886   -0.647414
C     -1.447255    5.012896   -0.437023
C      2.182140    2.950567    0.967477
C      1.582148   -2.859935    0.743075
C      2.851798   -2.642088    0.278722
C     -3.729973    0.571013    0.387973
C     -3.812695   -0.829350   -0.214961
C     -0.670816   -1.973356    1.362866
C     -1.988874    2.329756   -0.003506
C      0.709546   -1.834007    0.775682
C     -2.324447    1.017443    0.211914
C     -1.585876   -1.355825    0.375249
C      3.210824   -1.392023   -0.145800
C     -0.683349    2.714711   -0.155945
C     -1.324848    0.094040    0.266081
C      1.054026   -0.540772    0.345328
C      0.029941    0.473500    0.109129
C      2.323193   -0.308094   -0.127660
C      0.355193    1.766756   -0.093179
N     -2.973466   -1.702997    0.578840
O      2.826302    0.839568   -0.600418
O      4.490447   -1.163782   -0.614331
O     -0.419972    4.060208   -0.372739
O      1.596253    2.301855   -0.229719
H     -3.053725   -2.943813   -1.064027
H     -4.168133   -3.437098    0.246516
H     -2.350272   -3.737978    0.367742
H      5.615162   -2.587908    0.371306
H      6.329396   -1.951965   -1.211292
H      4.940152   -3.079855   -1.218859
H     -2.190997    4.718421   -1.223032
H     -1.038153    5.988101   -0.754498
H     -1.974825    5.170818    0.514307
H      3.200115    3.238530    0.656399
H      2.245077    2.164168    1.719028
H      1.621864    3.844174    1.224170
H      1.239171   -3.839019    1.092799
H      3.547683   -3.462513    0.257413
H     -4.437730    1.243789   -0.120017
H     -3.919225    0.512792    1.475291
H     -4.853245   -1.151014   -0.223460
H     -3.376926   -0.788973   -1.252320
H     -0.887277   -3.016539    1.606550
H     -0.632337   -1.349382    2.303467
H     -2.803799    3.035544   -0.047312
H     -1.309152   -1.801476   -0.638887
H      3.749013    0.980284   -0.959031
