53

C     -4.699072   -1.323140    1.796844
C      6.340283   -1.288104    1.839779
C      0.631969   -0.863531   -3.557917
C     -3.954767   -0.102637    1.356537
C      3.005428    1.766542    2.663324
C      1.919281    1.644496    1.818793
C      4.125344    0.925839    2.568926
C     -0.282009    0.799396    0.182325
C      2.162058   -1.456438   -1.061785
C      4.504674   -1.711173    0.203572
C     -0.774752    0.475854   -2.211071
C     -5.655100    0.478262   -0.381301
C      3.243344   -1.168973   -0.096612
C     -1.376765    0.558908   -0.824598
C     -4.161203    0.227915   -0.107830
C      1.975028    0.653808    0.866367
C      0.911369    0.411538   -0.130848
C      4.183459   -0.075356    1.608831
C      1.342132   -0.244237   -1.393543
C      3.078335   -0.158000    0.791647
C     -2.306045    1.687719   -0.683021
N     -3.516212    1.490741   -0.367318
N      5.060462   -1.037051    1.239162
N      0.204978   -0.584701   -2.217133
O     -5.744252    0.872026   -1.712988
O     -1.852301    2.970812   -0.896657
H     -4.951839   -2.016088    0.965332
H     -4.143871   -1.907141    2.566784
H     -5.630072   -0.971882    2.312946
H      6.575245   -2.370077    1.757833
H      7.174923   -0.771002    1.283573
H      6.398336   -0.919323    2.879060
H      1.576870   -0.355724   -3.835282
H      0.835212   -1.957662   -3.655317
H     -0.122890   -0.577759   -4.303268
H     -2.871302   -0.261563    1.517983
H     -4.225907    0.800334    1.945268
H      3.016426    2.523275    3.426308
H      1.073598    2.274040    1.886532
H      4.976049    1.013950    3.222162
H     -0.500933    1.270470    1.105792
H      1.439554   -2.169792   -0.556337
H      2.539219   -1.975689   -1.971061
H      4.930778   -2.543754   -0.337526
H     -1.601825    0.168372   -2.893775
H     -0.390526    1.430987   -2.573605
H     -6.238621   -0.439890   -0.207782
H     -6.016040    1.335127    0.237279
H     -1.842366   -0.417507   -0.632902
H     -3.844662   -0.583893   -0.768132
H      2.031324    0.470260   -1.923596
H     -6.243856    0.207853   -2.251845
H     -2.308495    3.793567   -0.489907
