46

C     -2.548495    0.741908   -1.237721
C      1.771099    1.771750    1.325773
C      4.321377   -0.761831   -1.185215
C      0.613436    0.867892    1.765935
C      2.913912   -1.158447   -0.834844
C     -2.416583    0.638782    1.660113
C     -3.655042   -0.260201    1.547532
C     -0.095137   -0.927991   -1.497202
C     -1.450428   -1.469393   -1.162190
C      3.869580    1.269300    0.279495
C      2.569144    1.020434    0.322765
C      4.696344    0.560107   -0.684693
C      2.013976    0.036450   -0.608190
C      0.656614   -0.460304   -0.269461
C     -0.174436    0.571798    0.506582
C     -1.441977   -0.109049    0.846278
C     -3.511697   -0.969677    0.195114
C     -2.233764   -0.465967   -0.392191
O      5.755491    1.083818   -1.102664
O     -4.625590   -0.595753   -0.567754
H     -2.801216    1.636578   -0.667436
H     -1.782811    0.995608   -1.968052
H     -3.476786    0.476911   -1.824373
H      1.331001    2.696358    0.899178
H      2.378836    1.966758    2.232626
H      4.494828   -0.809397   -2.282108
H      5.048442   -1.501029   -0.737517
H      1.096498   -0.074411    2.115552
H      0.008351    1.348454    2.542991
H      2.907830   -1.759665    0.092859
H      2.516186   -1.762227   -1.665037
H     -2.106131    0.678444    2.744223
H     -2.616990    1.665229    1.363976
H     -4.583676    0.300233    1.629131
H     -3.549480   -1.050138    2.337133
H     -0.104249   -0.125683   -2.256993
H      0.497475   -1.759395   -1.932887
H     -1.985498   -1.696832   -2.093756
H     -1.304925   -2.392364   -0.559114
H      4.336547    1.994450    0.950514
H      1.940587    0.547601   -1.613067
H      0.749864   -1.334829    0.407504
H     -0.285332    1.487818   -0.096209
H     -1.204163   -1.066577    1.354519
H     -3.495570   -2.074584    0.328141
H     -5.037440    0.229061   -0.209258
