54

C     -0.621603   -4.156107    2.888663
C      1.442220   -1.100856   -1.511646
C      3.716139   -0.272168    2.107316
C      3.668865   -1.775067    0.379670
C     -0.798855   -3.662612    1.492139
C     -1.481634    4.814360   -0.622911
C     -3.125839    0.357749   -3.168247
C     -2.524997    3.949960   -0.390472
C     -0.213887    4.384109   -0.332567
C     -1.820541    0.714383   -3.423359
C     -3.529985   -0.147586   -1.954024
C     -2.276938    2.715049    0.107583
C      0.024707    3.105052    0.182842
C     -0.847151    0.563466   -2.413200
C     -2.545710   -0.289093   -0.967131
C     -0.825975    0.834829    0.925523
C      2.243168    0.169089    0.396068
C      1.101639   -0.004623   -0.507176
C     -0.991930    2.216625    0.423409
C     -1.241452    0.071845   -1.232316
C     -0.405122   -2.203376    1.387972
C     -0.271893   -0.165039   -0.031892
N      2.759215   -0.939995    1.163141
O      0.099301   -1.627020    2.357361
O     -0.588128   -1.495430    0.258972
H     -1.402426   -4.924154    3.072487
H     -0.875858   -3.304146    3.563800
H      0.384823   -4.541535    3.079841
H      1.608253   -2.053212   -0.939200
H      2.206540   -0.843719   -2.231176
H      0.525382   -1.396536   -2.130358
H      4.510306    0.148061    1.420707
H      3.258101    0.571609    2.608677
H      4.209894   -1.023569    2.735440
H      4.702620   -1.829508    0.841058
H      3.859802   -1.357228   -0.621661
H      3.337259   -2.829796    0.378619
H     -0.175185   -4.212747    0.756012
H     -1.862940   -3.708281    1.212780
H     -1.717682    5.789094   -1.023509
H     -3.888811    0.469617   -3.942661
H     -3.554353    4.276962   -0.606383
H      0.641086    5.037198   -0.493756
H     -1.495555    1.103329   -4.365031
H     -4.554666   -0.421836   -1.768659
H     -3.123580    2.089915    0.301312
H      1.053040    2.864536    0.379107
H      0.152385    0.842966   -2.621733
H     -2.913945   -0.684193   -0.032204
H     -0.292908    0.827146    1.915458
H     -1.862249    0.484692    1.208543
H      3.109291    0.528595   -0.212877
H      2.091903    1.049657    1.105489
H      1.125858    0.989537   -1.105843
