29

C     -1.364204   -1.065078   -0.264772
C     -3.626926    0.598713    0.691481
C      3.508759   -1.291027    0.022635
C      2.806797   -1.275197   -1.161897
C      3.012719   -0.538807    1.066270
C      1.638379   -0.525385   -1.297251
C      1.845225    0.215878    0.944439
C     -1.273658    0.321503    0.279117
C      1.148525    0.225098   -0.247549
C     -0.097129    1.017932   -0.405465
N     -2.440969    1.119166    0.049069
O      0.097763    2.288023    0.116129
Cl     0.690866    0.000000    0.000000
H     -0.464271   -1.626740    0.128819
H     -1.215002   -1.032214   -1.372569
H     -2.245287   -1.631803    0.051238
H     -4.416969    0.290682   -0.017490
H     -4.023425    1.394695    1.352427
H     -3.312395   -0.220727    1.367089
H      4.418221   -1.881968    0.107679
H      3.189144   -1.859265   -1.988706
H      3.555472   -0.544605    2.001543
H      1.121473   -0.548385   -2.250658
H      1.502758    0.795173    1.814857
H     -1.089729    0.248758    1.383879
H     -0.307883    1.117509   -1.473076
H     -2.287894    2.128316    0.210604
H      0.320505    2.279753    1.070137
H     -0.690866    0.000000    0.000000
