42

C     -1.047817    4.108820    0.722537
C     -3.596067   -3.782254    0.289661
C     -2.746194    0.329629   -0.497033
C     -3.044260   -0.999877   -0.244615
C      2.776433   -0.747337   -1.543678
C      1.543390   -0.292633   -1.467590
C      1.409952    1.373778    0.267528
C      0.418254    2.212439    0.984578
C      2.812290   -1.440047    0.838639
C     -1.278813    2.230659   -0.769951
C     -1.453825    0.762535   -0.478966
C      3.604129   -0.956436   -0.348590
C     -2.023662   -1.909505    0.030941
C      1.376780   -1.083203    0.806439
C     -0.477559   -0.168042   -0.202924
C     -0.706705   -1.500083    0.056116
C      0.981717    0.015450   -0.124638
N     -0.594427    2.834486    0.281788
O      4.663835   -1.840282   -0.641497
O     -2.299574   -3.239086    0.285231
O      0.532775   -2.136297    0.294004
H     -0.248449    4.860085    0.555650
H     -1.964528    4.376006    0.142728
H     -1.265695    4.105594    1.809239
H     -3.967721   -4.041589   -0.724185
H     -4.340547   -3.153471    0.809444
H     -3.548610   -4.749891    0.854498
H     -3.539650    1.033061   -0.710366
H     -4.066601   -1.366805   -0.253915
H      3.215849   -0.982613   -2.521006
H      0.919555   -0.131149   -2.332517
H      2.306845    1.272038    0.914250
H      1.736775    1.922459   -0.637118
H     -0.023432    1.576338    1.809007
H      1.006395    2.995459    1.552466
H      2.886209   -2.566094    0.820944
H      3.247530   -1.138653    1.807760
H     -0.714836    2.314847   -1.719864
H     -2.310546    2.660526   -0.846254
H      4.088437   -0.001616   -0.066614
H      1.013195   -0.838005    1.823051
H      4.719172   -1.919244   -1.625179
