53

C     -6.019522   -0.874723    0.236277
C      6.280670   -1.045977    1.746959
C     -0.001912   -0.047250   -3.372472
C     -4.775719   -0.053146    0.265512
C      2.202072    0.111362    3.439666
C      1.276505    0.481684    2.475086
C      3.505726   -0.274101    3.103287
C     -0.192575    1.581534    0.247312
C      2.689839    0.360277   -1.555551
C      4.826697   -0.429291   -0.202601
C     -0.268420    2.009790   -2.154171
C     -3.313861   -1.995440    0.716769
C      3.521503    0.001740   -0.408705
C     -1.097348    1.961519   -0.896697
C     -3.545069   -0.800742   -0.185461
C      1.720282    0.445929    1.175432
C      0.838173    0.811429    0.031985
C      3.917255   -0.298738    1.789330
C      1.198370    0.269900   -1.308368
C      2.997081    0.067924    0.852147
C     -2.257715    1.073787   -0.982917
N     -2.418311    0.108112   -0.148749
N      5.058145   -0.607506    1.114936
N      0.503741    0.852362   -2.392293
O     -3.128485   -1.644356    2.039923
O     -3.216538    1.247337   -1.964657
H     -5.902415   -1.890123   -0.154467
H     -6.801292   -0.316322   -0.329724
H     -6.429950   -0.945487    1.284073
H      6.686867   -0.163032    2.294950
H      6.124233   -1.861849    2.480559
H      6.993741   -1.427102    0.990354
H     -0.970585    0.329829   -3.764212
H      0.706684   -0.063887   -4.235264
H     -0.075631   -1.099394   -3.026259
H     -4.579156    0.341066    1.298094
H     -4.878626    0.860163   -0.368298
H      1.910447    0.119581    4.486248
H      0.265440    0.780941    2.677429
H      4.214770   -0.559730    3.866203
H     -0.392179    1.949389    1.244433
H      2.890192    1.447532   -1.780545
H      2.894083   -0.246654   -2.461251
H      5.516965   -0.583293   -1.024324
H     -0.909451    2.214038   -3.010620
H      0.428295    2.885673   -2.046545
H     -4.167019   -2.688448    0.559152
H     -2.389080   -2.513126    0.356181
H     -1.426190    2.999035   -0.679819
H     -3.693733   -1.184479   -1.193378
H      0.979227   -0.840779   -1.312090
H     -3.628277   -2.301644    2.586447
H     -3.667945    0.453218   -2.399304
