35

C      2.019829   -0.447728    1.346683
C      3.297403   -0.658950    1.842288
C      2.936590    0.024329   -0.762159
C     -4.501152   -0.294823   -0.172337
C     -2.675522   -1.713641   -0.532701
C     -1.292565    1.487130    0.655863
C      1.807627   -0.098034    0.021072
C     -4.040359   -1.529399   -0.563160
C     -2.300590    0.501876    0.250803
C      4.413383   -0.531547    1.042583
C     -3.658847    0.730157    0.236012
C      4.208805   -0.184431   -0.274862
C     -0.074620    1.502430   -0.268854
C     -1.795839   -0.745658   -0.141335
C      0.448920    0.133147   -0.531831
O     -4.943855   -2.488463   -0.953175
O      5.702749   -0.747025    1.551872
O     -4.176064    1.953416    0.619583
O      5.321917   -0.055438   -1.080085
O     -0.484756    2.151600   -1.433428
O     -0.429400   -0.892714   -0.097793
H      1.167399   -0.554918    1.996548
H      3.440721   -0.935515    2.897184
H      2.760996    0.301351   -1.810314
H     -5.552065   -0.106039   -0.179714
H     -2.304627   -2.682120   -0.838205
H     -0.907531    1.204240    1.672757
H     -1.670250    2.515138    0.757865
H      0.669331    2.179443    0.220238
H      0.519202    0.010222   -1.651201
H     -4.707982   -3.417297   -1.254803
H      5.787303   -0.999560    2.527365
H     -3.643464    2.722199    0.921205
H      5.192447    0.198663   -2.049888
H     -0.535134    1.467961   -2.142889
