17

C     -0.866127   -0.183586    1.146050
C     -0.117088   -1.212966    0.316501
C     -1.360855    0.826840    0.126581
C      0.348293   -0.386125   -0.829770
C      1.739593    0.077120   -0.605853
N     -0.608598    0.624246   -1.109484
O      2.694783   -0.256729   -1.233777
O      1.898517    0.949505    0.510356
H     -0.169799    0.258463    1.867396
H     -1.722773   -0.649936    1.659076
H     -0.737177   -2.070427    0.049463
H      0.788617   -1.535866    0.905581
H     -1.159942    1.841096    0.463070
H     -2.453890    0.720885   -0.011018
H      0.386208   -1.057246   -1.738062
H     -1.272228    0.365869   -1.886949
H      2.612467    1.688857    0.370840
