39

C     -2.722378   -2.170032   -0.359950
C      0.099176    3.344323   -0.473379
C     -1.217768    3.062100   -0.224625
C      1.083604    2.337127   -0.395227
C      2.060768   -2.315379    0.457338
C      3.402358   -2.149578    0.234149
C     -3.014471    1.397623    0.390853
C     -3.357214    0.118360   -0.316799
C     -0.238302   -1.622091    0.628893
C     -1.607284    1.786640    0.107485
C      1.149456   -1.264883    0.362144
C      0.679567    1.074123   -0.063824
C     -1.212610   -0.531541    0.559869
C      3.850558   -0.867358   -0.100726
C     -0.656481    0.785772    0.189224
C      1.644907   -0.016722    0.027986
C      2.968026    0.206257   -0.204788
N     -2.264047   -0.818477   -0.399473
O      5.200187   -0.756013   -0.313549
O      3.505578    1.407685   -0.534959
Cl     0.685568    0.000000    0.000000
H     -2.583337   -2.616420    0.627190
H     -2.187450   -2.751479   -1.166712
H     -3.794155   -2.168547   -0.699534
H      0.433454    4.345403   -0.738040
H     -1.970697    3.849229   -0.288117
H      2.091570    2.614047   -0.599033
H      1.724751   -3.326711    0.718991
H      4.087544   -2.980509    0.314492
H     -3.213898    1.274852    1.474411
H     -3.729016    2.178295    0.021547
H     -4.200578   -0.354954    0.226464
H     -3.728810    0.324053   -1.350861
H     -0.498304   -2.478383   -0.051889
H     -0.266072   -2.088036    1.658051
H     -1.744406   -0.392329    1.537350
H      5.746050    0.022204   -0.555141
H      4.479722    1.541351   -0.699813
H     -0.685568    0.000000    0.000000
