27

C      1.139339    1.253622   -0.637470
C      3.728763    0.351976    0.389592
C     -3.781794    0.110946    0.446959
C     -3.418726   -1.003576   -0.262430
C     -2.788749    0.900006    0.994325
C     -2.097575   -1.322707   -0.422584
C     -1.464792    0.566795    0.825655
C      1.332562    0.056610    0.237763
C     -1.081251   -0.536567    0.123616
C      0.297826   -0.977031   -0.112949
N      2.645053   -0.529732    0.036850
O      0.459872   -1.349612   -1.443568
H      0.131912    1.272221   -1.145763
H      1.952873    1.423278   -1.364323
H      1.143893    2.167032    0.022747
H      3.377533    1.022732    1.213325
H      4.099299    0.927676   -0.479857
H      4.556700   -0.254220    0.838576
H     -4.822873    0.374277    0.580728
H     -4.233470   -1.596849   -0.674873
H     -3.099071    1.780856    1.554958
H     -1.854465   -2.199842   -0.982359
H     -0.706710    1.187117    1.256708
H      1.273071    0.321052    1.324365
H      0.451875   -1.878753    0.545976
H      2.689397   -1.357569    0.674319
H      0.069510   -0.709737   -2.060321
