28

C     -3.612219    1.166911   -1.015080
C      0.285710   -1.650210    0.563226
C     -0.832525   -2.063643    1.256222
C      1.344921   -0.189524   -1.095984
C     -1.096833   -0.046608   -0.563478
C      0.148566   -0.633599   -0.352855
C      2.023969    0.918594   -0.320918
C     -2.066064   -1.482523    1.047863
C     -2.203086   -0.477571    0.142686
C      3.226953    1.384171   -1.041549
N      2.318752    0.420141    0.990330
O     -3.135836   -1.961929    1.789499
O      3.073967    1.841168   -2.203919
O      4.489223    1.332502   -0.485407
O     -3.427598    0.130342   -0.093268
H     -3.281568    2.126028   -0.519626
H     -3.052498    1.001342   -1.940254
H     -4.697186    1.211353   -1.258039
H      1.225681   -2.143430    0.769291
H     -0.714622   -2.876071    1.986031
H      2.019870   -1.060318   -1.211024
H      1.044888    0.181485   -2.116658
H     -1.132950    0.747245   -1.298203
H      1.306876    1.754024   -0.213125
H      2.543204    1.139670    1.686833
H      2.951297   -0.405820    0.995299
H     -4.074859   -1.615690    1.721053
H      5.323967    1.251959   -1.072371
