32

C      3.044494   -1.646158   -0.013279
C     -2.120120   -0.716727   -1.407364
C     -3.236305    0.642307    0.120880
C     -1.946089   -1.120815    0.930685
C      1.330370    1.576704   -0.493329
C     -0.915118    0.809618    0.016765
C      2.259623   -0.522342   -0.583068
C      0.301073    0.498205   -0.793482
C      2.371657    0.753078    0.264396
N     -1.989021   -0.103009   -0.114796
O      3.617742    1.301517    0.231990
O      0.877597   -0.711561   -0.509997
H      3.145820   -2.435392   -0.761478
H      2.676361   -1.995820    0.966763
H      4.087187   -1.263897    0.178948
H     -3.117736   -1.245954   -1.405060
H     -2.200853    0.059949   -2.175595
H     -1.349501   -1.448867   -1.648328
H     -4.079859   -0.027909    0.310285
H     -3.049765    1.206949    1.076516
H     -3.413829    1.391145   -0.668470
H     -1.441794   -0.660191    1.805451
H     -2.990034   -1.354570    1.292907
H     -1.424810   -2.033617    0.592688
H      1.805376    1.958759   -1.421165
H      0.943555    2.361952    0.156915
H     -1.264017    1.828513   -0.288606
H     -0.619283    0.901912    1.077373
H      2.600429   -0.302267   -1.595758
H      0.102663    0.545326   -1.880723
H      1.983202    0.496624    1.257687
H      4.010983    1.256538    1.161069
