27

C      1.249222   -0.685738    1.061219
C      3.656318    0.136277   -0.361398
C     -3.662895   -1.031220    0.264754
C     -3.132133   -0.287496    1.297413
C     -2.964646   -1.062003   -0.918795
C     -1.936762    0.402380    1.142185
C     -1.776076   -0.374331   -1.069364
C      1.245460    0.199648   -0.137463
C     -1.229678    0.377400   -0.041071
C      0.045074    1.108795   -0.221335
N      2.484745    0.936339   -0.201441
O      0.101688    1.792887   -1.438300
H      0.813760   -0.212395    1.976540
H      0.753163   -1.668680    0.880315
H      2.296660   -0.923441    1.328666
H      4.465541    0.773619   -0.836615
H      3.511760   -0.728582   -1.035630
H      4.035114   -0.156550    0.628620
H     -4.598794   -1.560990    0.412917
H     -3.670264   -0.252632    2.239133
H     -3.372697   -1.640395   -1.731554
H     -1.507117    0.987717    1.941281
H     -1.236190   -0.409812   -2.010412
H      1.242870   -0.478484   -1.039614
H      0.189784    1.892019    0.562311
H      2.588717    1.688708    0.482642
H      0.407376    1.176960   -2.152668
