43

C      4.017381    0.608950    0.753656
C     -4.107532    0.177048   -0.168874
C      3.896997    1.026328   -0.678497
C     -3.836087   -0.244878    1.240882
C      2.985698   -0.420310    1.088519
C     -2.802385    0.579508   -0.863876
C      2.515685    1.000557   -1.222783
C     -2.526075    0.227087    1.783936
C      0.362016   -1.480837   -0.728084
C     -0.532551   -1.082018    1.518589
C      0.206210    1.012140   -0.914406
C      0.719103   -1.209212    0.695932
C     -0.470116   -0.289249   -1.211388
C      1.592771    0.035651    0.795326
C     -1.750541   -0.367022   -0.399022
N      1.467323    0.919699   -0.288659
N     -1.394965   -0.075654    0.972571
H      5.021496    0.141970    0.955856
H      3.937185    1.463103    1.428163
H     -4.453870   -0.746135   -0.718676
H     -4.887508    0.938520   -0.279782
H      4.376449    2.046222   -0.760076
H      4.598617    0.362544   -1.264730
H     -4.639520    0.221613    1.877679
H     -3.954442   -1.344130    1.405989
H      3.200023   -1.408436    0.610404
H      3.083195   -0.624795    2.195183
H     -2.608447    1.628510   -0.516626
H     -2.926853    0.600176   -1.956789
H      2.481131    0.200200   -2.019653
H      2.375352    1.955556   -1.813944
H     -2.393909   -0.211386    2.787433
H     -2.592114    1.339973    1.888423
H      1.187346   -1.718967   -1.387905
H     -0.341820   -2.348222   -0.743319
H     -1.058332   -2.037228    1.505643
H     -0.271741   -0.796536    2.563029
H      0.336484    1.584788   -1.879774
H     -0.454525    1.679188   -0.296932
H      1.259323   -2.115722    1.078690
H     -0.684686   -0.380777   -2.300949
H      1.227377    0.565970    1.725337
H     -2.159142   -1.413785   -0.491148
