22

C      0.676403    0.962286    0.736701
C      0.325566   -1.035704   -0.704639
C      1.161489   -0.094112    0.084549
C     -0.763983    1.309326    0.740767
C     -0.992103   -0.360932   -0.987757
C     -1.526870    0.082225    0.367284
C      2.618803   -0.374309    0.129404
O     -1.043680    2.393049   -0.083589
O     -1.913355   -1.171596   -1.598159
O     -2.893566    0.243108    0.361940
O      3.398689    0.374898    0.776177
O      3.127519   -1.455424   -0.535987
H      1.419492    1.551568    1.266789
H      0.099868   -1.954055   -0.103295
H      0.848095   -1.341378   -1.634703
H     -1.063793    1.625337    1.774526
H     -0.766668    0.540979   -1.600437
H     -1.267349   -0.713440    1.096293
H     -0.430169    3.127971    0.203339
H     -1.861754   -2.114269   -1.368907
H     -3.197343    0.226171    1.314960
H      4.044707   -1.821699   -0.235258
