22

C     -2.019749   -0.998605    0.687314
C      0.191715    1.626317   -0.982002
C     -1.422948    0.340012    0.313819
C     -0.318860    0.231234   -0.694484
C      0.787736   -0.690900   -0.290780
C      1.484539   -0.221783    0.936173
N      1.770962   -0.734211   -1.374750
O      2.715757    0.067549    0.924133
O      0.837570   -0.073600    2.155942
H     -3.005228   -0.787242    1.153699
H     -2.199183   -1.633885   -0.192260
H     -1.417813   -1.510920    1.478776
H      1.043573    1.629487   -1.674441
H     -0.645647    2.174379   -1.483433
H      0.414786    2.178301   -0.041352
H     -1.117762    0.831915    1.261229
H     -2.263725    0.949999   -0.079349
H     -0.771297   -0.136586   -1.638730
H      0.476404   -1.719830   -0.115030
H      1.553305   -1.473217   -2.068357
H      2.747271   -0.761231   -1.015246
H      1.158594    0.712818    2.739129
