76

C     -7.332819    0.878399   -1.753664
C     -6.613896    2.765675   -0.256517
C     -2.449055   -2.468100    1.230726
C      3.914137    0.043242    1.737656
C     -0.400925   -0.231024    1.805350
C     -4.849343   -0.554272   -0.992267
C     -5.453651    0.552568   -0.132019
C     -4.087481   -1.543220   -0.221286
C      3.653187    1.997516   -0.571478
C      2.295363    1.611119   -1.142443
C     -1.883810    0.593112   -1.026031
C     -0.666859    1.416994   -0.568639
C      6.195238   -1.382548   -0.030117
C      1.885274   -1.731380    0.582605
C      4.734356   -1.578492    0.024974
C      0.431307   -1.913678    0.238552
C      5.896414    1.105903   -0.221162
C     -6.213439    1.536595   -1.002943
C     -2.871640   -1.116527    0.553923
C      4.501275    0.749052   -0.592339
C      6.706629   -0.034041    0.298559
C      1.682518    0.674513   -0.077337
C     -1.703455   -0.705931   -0.307409
C      0.337849    0.343919   -0.527107
C      2.521159   -0.591215   -0.161184
C      3.920556   -0.345439    0.283417
C     -0.369481   -0.669754    0.391388
O      6.960006    0.131392    1.680774
H     -8.019863    1.660128   -2.120027
H     -6.912256    0.369853   -2.651627
H     -7.855291    0.089370   -1.167605
H     -7.348229    2.586945    0.541654
H     -7.077282    3.465310   -0.978284
H     -5.689793    3.260452    0.104446
H     -1.770974   -2.290879    2.068276
H     -2.181531   -3.212807    0.490791
H     -3.384803   -2.888657    1.722646
H      2.897379    0.091862    2.179844
H      4.374412    1.035526    1.919920
H      4.437883   -0.777742    2.292296
H     -1.398039    0.039783    2.210829
H      0.164634   -0.940986    2.425666
H      0.185341    0.730177    1.891424
H     -5.802374   -1.111044   -1.335625
H     -4.381501   -0.119926   -1.876469
H     -6.199252    0.063998    0.564038
H     -4.734574    1.071693    0.499697
H     -3.759367   -2.433650   -0.843328
H     -4.827095   -2.034096    0.488469
H      3.474552    2.305931    0.481249
H      4.160402    2.755460   -1.170482
H      1.637432    2.485006   -1.259368
H      2.462185    1.042212   -2.070298
H     -1.810886    0.409663   -2.119066
H     -2.796167    1.152960   -0.828668
H     -0.461973    2.243757   -1.276985
H     -0.878613    1.786362    0.452935
H      6.615563   -1.701053   -1.029701
H      6.668946   -2.111052    0.693014
H      2.407786   -2.661149    0.257420
H      2.021147   -1.679667    1.682387
H      4.428973   -2.351164    0.786177
H      4.381915   -2.000254   -0.950218
H      0.096921   -2.803543    0.757066
H      0.409122   -2.180759   -0.861064
H      5.856773    1.947488    0.528598
H      6.369172    1.584410   -1.128412
H     -5.466997    1.867556   -1.784652
H     -3.156205   -0.425233    1.333620
H      4.479604    0.364062   -1.633848
H      7.731120    0.063214   -0.172051
H      1.819668    1.210322    0.859996
H     -1.622890   -1.558656   -1.068304
H      0.396642   -0.136495   -1.528827
H      2.541473   -0.875869   -1.239894
H      6.777498    1.076799    1.888881
