76

C      7.459526   -1.204530   -0.653408
C      6.771985    0.726512   -2.096852
C      3.431138    1.762681    1.357056
C     -3.641344   -1.494501   -1.305286
C      0.533870   -1.755060    0.999890
C      4.689686   -0.525628   -0.286145
C      5.788238    0.369831    0.187693
C      3.438434   -0.566629    0.499165
C     -4.454879   -0.787835    1.463139
C     -3.191329   -0.170438    2.059423
C      1.171449    0.335819    2.640093
C     -0.289462   -0.114372    2.815676
C     -5.398221    1.569117   -1.731408
C     -1.314272    0.425727   -1.206693
C     -4.084804    0.872767   -1.945224
C     -0.017789   -0.148081   -0.838099
C     -6.187992   -0.210386   -0.220128
C      7.016909    0.223204   -0.714381
C      2.689931    0.673705    0.636691
C     -4.794672    0.092641    0.256052
C     -6.478541    0.534562   -1.479462
C     -2.094491   -0.395321    1.046859
C      1.317189    0.619285    1.159601
C     -0.841707    0.170920    1.493172
C     -2.424046    0.388494   -0.238902
C     -3.748565   -0.090834   -0.815035
C      0.318221   -0.305954    0.586716
O     -6.436888   -0.348618   -2.582535
H      8.577295   -1.263679   -0.681977
H      7.177761   -1.604652    0.354206
H      6.979767   -1.776784   -1.455024
H      7.777966    1.010687   -2.523807
H      6.266715   -0.017776   -2.748591
H      6.179740    1.672195   -2.024202
H      4.235797    1.419237    2.013501
H      2.692241    2.233244    2.110021
H      3.670049    2.652652    0.727286
H     -4.436145   -2.160755   -0.915630
H     -3.782098   -1.478017   -2.424991
H     -2.672877   -1.978832   -1.138487
H      0.677963   -2.425891    0.112350
H     -0.392842   -2.193317    1.481147
H      1.303850   -1.878631    1.779883
H      4.486922   -0.349361   -1.392790
H      5.178981   -1.564275   -0.339938
H      6.061837    0.146715    1.210421
H      5.487965    1.442714    0.088866
H      3.690938   -1.062768    1.480989
H      2.801757   -1.374593    0.002315
H     -4.208630   -1.793335    1.077655
H     -5.268753   -0.768890    2.196189
H     -3.383215    0.902404    2.198929
H     -2.883605   -0.695694    2.987015
H      1.880587   -0.380446    3.033347
H      1.278808    1.275816    3.237916
H     -0.815685    0.539886    3.568442
H     -0.358217   -1.123489    3.206401
H     -5.374637    2.366194   -0.982814
H     -5.664623    2.049175   -2.710034
H     -1.675313   -0.090776   -2.149169
H     -1.182447    1.494413   -1.557787
H     -4.183413    0.298839   -2.908491
H     -3.316197    1.625562   -2.116132
H      0.121580   -1.162051   -1.324225
H      0.804248    0.466477   -1.315969
H     -6.362298   -1.297434   -0.286267
H     -6.883700    0.162604    0.577078
H      7.810771    0.843261   -0.249161
H      2.592883    1.086426   -0.435474
H     -4.727138    1.136138    0.616094
H     -7.456737    1.048316   -1.496421
H     -2.134917   -1.446233    0.754628
H      0.882637    1.661846    1.039117
H     -0.857993    1.291241    1.359792
H     -2.642249    1.430409    0.144261
H     -7.182902   -1.015853   -2.479914
