27

C     -2.124791    1.832617    0.952528
C     -3.161543    1.632885    0.063370
C     -1.058841    0.991318    0.996139
C     -3.141833    0.579377   -0.799466
C      1.201993   -1.314948    0.646828
C     -0.606129   -1.902080   -1.056044
C     -0.084126   -1.091896   -0.034167
C     -1.019350   -0.090919    0.122905
C      2.340822   -0.545764    0.049176
C     -2.072422   -0.290560   -0.776856
C      2.183468    0.911872    0.039118
N      3.527985   -0.920124    0.832924
N     -1.773112   -1.400257   -1.467200
O      2.844806    1.574385    0.915984
O      1.397680    1.607841   -0.825632
H     -2.156952    2.673206    1.628909
H     -3.979125    2.360750    0.098241
H     -0.219141    1.098460    1.671836
H     -3.936286    0.407994   -1.496761
H      1.394302   -2.416500    0.633854
H      1.113744   -1.086751    1.753883
H     -0.088728   -2.782698   -1.407603
H      2.486442   -0.861457   -1.015113
H      4.064482   -0.104501    1.149439
H      4.103891   -1.634514    0.363500
H     -2.360470   -1.811727   -2.212334
H      1.123234    2.583995   -0.636183
