17

C     -0.784493   -0.462571    0.407767
C      0.641872   -0.664310    0.017341
C     -1.578720    0.436237   -0.419618
C      1.473930    0.552511    0.009140
N      1.157266   -1.624518    1.018052
N     -2.580502    0.008718   -1.084373
O     -1.257871    1.770029   -0.497166
O      2.414083    0.666474    0.849684
O      1.300594    1.602586   -0.869666
H     -1.252487   -1.482055    0.385698
H     -0.799673   -0.191495    1.490368
H      0.722985   -1.218699   -0.960256
H      2.081053   -1.985160    0.763812
H      1.131638   -1.087623    1.921728
H     -2.838199   -0.993124   -1.038946
H     -1.908781    2.501809   -0.765147
H      2.077305    2.171189   -1.228420
