19

C     -1.270777   -1.101799   -0.810499
C     -1.665354    0.618602    0.867949
C     -0.624047   -0.310744    0.280842
C      0.543387    0.524750   -0.205146
C      1.604859   -0.304365   -0.798701
N      1.006795    1.305230    0.914541
O      1.314437   -1.025847   -1.781301
O      2.906928   -0.300867   -0.294593
H     -2.265960   -1.442882   -0.434487
H     -0.711727   -1.986917   -1.121693
H     -1.430528   -0.413904   -1.674127
H     -1.430986    0.880629    1.925491
H     -1.661177    1.543698    0.238126
H     -2.679792    0.208327    0.801449
H     -0.283133   -1.015994    1.070271
H      0.129917    1.239413   -0.951028
H      1.773413    1.965066    0.657696
H      1.216040    0.722262    1.749330
H      3.527704   -1.104658   -0.434122
