24

C      1.038547   -1.096843    0.566395
C      0.754758    1.192523    0.195424
C      2.320231   -1.026192    0.058183
C      2.035740    1.272241   -0.314419
C     -1.157331   -0.080442    1.198577
C      0.213009    0.008089    0.652424
C      2.849747    0.162984   -0.395098
C     -2.209108   -0.378937    0.179545
C     -2.332678    0.596817   -0.896554
N     -2.023219   -1.722318   -0.335715
O      4.149386    0.237598   -0.911050
O     -2.269816    0.203203   -2.088699
O     -2.518297    1.954655   -0.687454
H      0.622141   -2.046143    0.925819
H      0.148754    2.077361    0.243097
H      2.954797   -1.911317   -0.000433
H      2.460062    2.218585   -0.676268
H     -1.446353    0.850563    1.767401
H     -1.195282   -0.893273    1.956480
H     -3.185737   -0.398626    0.729883
H     -2.090919   -2.396265    0.473224
H     -1.173607   -1.834377   -0.901688
H      4.955450    0.430836   -0.328207
H     -2.900273    2.579279   -1.410868
