28

C     -0.850557   -1.128763   -0.947266
C      2.024164   -1.073080   -0.652834
C     -2.985271    1.527657    0.518753
C      3.402121   -0.830184   -0.676494
C     -2.125481   -0.277011   -0.995673
C     -2.141495    0.274796    0.425838
C     -0.202939   -0.669260    0.296026
C      3.934727    0.063193    0.228513
C      1.770372    0.398477    1.085276
Br     4.541489   -1.708906   -1.930436
N      3.092930    0.655256    1.089608
N      1.215146   -0.467030    0.217083
O     -2.614032    2.457811   -0.439021
O     -3.251547   -1.037069   -1.196848
O      5.314178    0.322684    0.223503
O      1.079487    1.015112    1.941461
O     -0.790185    0.554154    0.616865
H     -1.204392   -2.176041   -0.807019
H     -0.294472   -0.967598   -1.875577
H      1.594497   -1.763510   -1.348295
H     -4.059980    1.312418    0.415966
H     -2.746913    1.984749    1.519150
H     -2.004785    0.565333   -1.693126
H     -2.455320   -0.496143    1.136258
H     -0.426974   -1.353598    1.154185
H     -1.774685    2.924344   -0.212571
H     -3.683486   -1.333502   -0.355971
H      5.643404    1.225712   -0.148587
