28

C     -0.467867   -1.596509    0.289469
C      1.491367    1.029822    0.088392
C     -2.997972    0.795819    0.588944
C      2.791825    1.510890    0.221275
C     -1.975785   -1.486825    0.349406
C     -2.229413   -0.159147   -0.317868
C     -0.079773   -0.593243   -0.758186
C      3.818480    0.819971   -0.378842
C      2.274346   -0.751024   -1.194951
Br     3.141903    3.101087    1.218848
N      3.534449   -0.302287   -1.077651
N      1.254263   -0.090714   -0.615918
O     -3.119281    1.994734   -0.148523
O     -2.545055   -2.497455   -0.428561
O      5.123798    1.237222   -0.288673
O      2.010545   -1.812660   -1.856697
O     -1.011082    0.422419   -0.580997
H     -0.048851   -1.384007    1.275999
H     -0.204728   -2.603052   -0.104356
H      0.716117    1.596275    0.571000
H     -2.379684    1.018371    1.489817
H     -3.980072    0.369427    0.841950
H     -2.369029   -1.546935    1.376819
H     -2.833180   -0.265386   -1.257480
H     -0.273109   -1.045606   -1.744143
H     -2.951665    2.765667    0.451579
H     -2.101287   -2.517897   -1.307728
H      5.410740    1.991044   -0.928662
