86

C      6.554825   -2.980605    0.022129
C     -4.301444   -0.387754   -2.433922
C     -3.595985    1.820933   -2.448795
C      5.500990    4.544081    1.966639
C     -7.315283   -3.927642    1.777818
C      1.754908   -2.643469    0.397458
C      1.401494   -1.820342   -1.767186
C     -1.905066    3.569458   -0.032150
C      0.365120   -2.647887    0.598550
C      0.008232   -1.838260   -1.527927
C     -0.964239    4.541462   -0.208395
C      6.870846   -0.011367    0.843310
C     -5.761795    0.600773    0.181213
C      6.932017   -0.687194   -0.550083
C     -5.325724    1.185931   -1.100430
C      3.806870   -2.213614   -1.017434
C     -2.905627    1.481168    0.476824
C     -0.335527    1.977138    0.679490
C      5.490026    1.945956    1.167433
C     -5.840765   -1.785840    0.823040
C      3.156872    0.600054    0.293003
C      2.313502   -2.226237   -0.795176
C     -1.654562    2.260405    0.411435
C      5.494573    0.636550    0.775247
C     -5.086206   -0.707893    0.334537
C     -0.550013   -2.250843   -0.342209
C      4.361642   -0.083622    0.330324
C      4.672138   -1.483649    0.000943
C     -3.114895    0.396866   -0.529608
C      0.319857    4.195648    0.073927
C      0.691588    2.905607    0.527163
C      4.291646    2.580403    1.114111
C      3.123414    1.938703    0.687029
C     -5.228930   -3.002442    0.968002
C     -3.780814   -0.833689    0.004889
C     -3.904873   -3.137789    0.635563
C     -3.115367   -2.070461    0.140009
N      5.999013   -1.722092   -0.422771
N     -4.030571    0.782127   -1.603205
O      1.272037    5.231380   -0.118273
O     -3.374782   -4.415930    0.818475
O      4.336175    3.927737    1.521991
O     -5.975007   -4.098381    1.456650
O     -1.878392   -2.256611   -0.158426
O      2.047714    2.809992    0.734541
H      5.808486   -3.587932    0.541836
H      7.309216   -2.697462    0.815432
H      7.131208   -3.502408   -0.754898
H     -5.373140   -0.475443   -2.721528
H     -3.912870   -1.323182   -2.013996
H     -3.766152   -0.242980   -3.422649
H     -3.942603    2.859132   -2.165848
H     -4.104417    1.667380   -3.442656
H     -2.522895    1.840863   -2.699618
H      5.223785    5.592690    2.267763
H      6.339552    4.556436    1.267973
H      5.783221    4.046741    2.939403
H     -7.619915   -4.815504    2.398053
H     -7.902717   -3.877394    0.818733
H     -7.505946   -3.036304    2.427051
H      2.256442   -3.047985    1.348541
H      1.550778   -1.450028   -2.819554
H     -2.918593    3.930379   -0.285465
H      0.097417   -3.027024    1.650994
H     -0.549831   -1.468418   -2.441743
H     -1.226969    5.559751   -0.564273
H      7.671698    0.718751    0.869211
H      6.909777   -0.758977    1.638620
H     -5.688987    1.238719    1.087401
H     -6.886002    0.443886    0.091122
H      7.942749   -1.074516   -0.701637
H      6.693579    0.058395   -1.336189
H     -6.082109    0.900530   -1.898055
H     -5.336945    2.312744   -1.053007
H      4.226723   -3.254592   -1.185329
H      4.182239   -1.709613   -1.936280
H     -3.224832    1.033591    1.438103
H     -3.804337    2.162641    0.272457
H     -0.002907    0.948490    1.060002
H      6.413431    2.452607    1.505766
H     -6.869706   -1.637992    1.071246
H      2.181000    0.116302   -0.025679
H      4.570647   -2.054217    0.980895
H     -2.176123    0.001971   -0.970007
H      2.253631    5.047628    0.077278
H     -3.947211   -5.146407    1.164776
