86

C     -5.970991   -2.499448   -1.004168
C      5.165330    2.017309   -1.646549
C      3.876397    3.534391   -0.479323
C     -5.704199    3.974258    1.727000
C      7.333124   -3.832001    1.081768
C     -1.366754   -1.938775    1.228602
C     -1.352313   -2.887724   -0.897588
C      1.216096    2.263898   -1.574403
C     -0.038316   -1.482108    1.018184
C     -0.027435   -2.421962   -1.082117
C      0.254912    2.631519   -2.497112
C     -6.387035   -0.972438    2.136740
C      6.187077    0.990806    0.507832
C     -6.906612   -1.876932    1.045996
C      5.231992    2.119207    0.713476
C     -3.458549   -3.175834    0.529894
C      2.184313    1.503775    0.485511
C     -0.374113    1.927200    0.192722
C     -5.508817    1.241562    1.550258
C      5.979330   -1.404211    0.577576
C     -3.471796    0.002698   -0.041705
C     -2.050985   -2.652231    0.275435
C      0.949718    1.908224   -0.239275
C     -5.377284   -0.114609    1.436113
C      5.275547   -0.218723    0.314369
C      0.654309   -1.709040   -0.119745
C     -4.369323   -0.755920    0.653345
C     -4.515048   -2.217362    0.903806
C      3.320560    1.139690   -0.405012
C     -1.032988    2.632337   -2.035607
C     -1.337519    2.284515   -0.721707
C     -4.582445    1.970883    0.844350
C     -3.591961    1.374249    0.073581
C      5.311998   -2.577596    0.491085
C      3.985384   -0.154564   -0.019298
C      3.957777   -2.544532    0.147073
C      3.242155   -1.387590   -0.113995
N     -5.849907   -2.571916    0.425406
N      4.311794    2.163961   -0.456639
O     -1.998626    3.012947   -2.995292
O      3.431558   -3.850084    0.100556
O     -4.717724    3.366104    0.962391
O      5.974872   -3.759907    0.739217
O      1.956798   -1.325972   -0.433551
O     -2.744971    2.349584   -0.538151
H     -4.974477   -2.426849   -1.510016
H     -6.477844   -1.531432   -1.253204
H     -6.623838   -3.274814   -1.456593
H      5.359575    0.945075   -1.814193
H      4.608570    2.360158   -2.568513
H      6.062754    2.648180   -1.589144
H      2.988502    3.780174    0.113740
H      4.691038    4.193512   -0.031095
H      3.779010    3.959008   -1.511002
H     -5.733115    3.614291    2.776168
H     -6.690450    3.731353    1.263206
H     -5.607426    5.073999    1.693949
H      7.710010   -4.874824    0.991843
H      7.915401   -3.166659    0.410763
H      7.440135   -3.557136    2.161019
H     -1.680417   -1.597557    2.281565
H     -1.629777   -3.416165   -1.851551
H      2.217897    2.286726   -2.009360
H      0.344533   -0.899164    1.933397
H      0.350689   -2.720643   -2.101004
H      0.515477    2.899782   -3.514708
H     -7.220471   -0.313324    2.527158
H     -5.943536   -1.464138    3.000107
H      6.793092    1.142242   -0.397736
H      6.842697    0.834247    1.399884
H     -7.676791   -2.532881    1.515818
H     -7.368954   -1.202293    0.289076
H      5.775021    3.089602    0.684937
H      4.661145    2.077070    1.638892
H     -3.850964   -3.840588   -0.316354
H     -3.475986   -3.992254    1.326156
H      2.092941    0.629155    1.196092
H      2.596547    2.281831    1.178467
H     -0.670398    1.718624    1.270693
H     -6.284491    1.728191    2.151602
H      7.044690   -1.381142    0.847665
H     -2.717104   -0.466026   -0.756062
H     -4.656719   -2.414850    2.024253
H      2.924812    0.989928   -1.441776
H     -2.982084    3.053925   -2.779659
H      2.484975   -4.041971   -0.131179
