16

C     -0.817951   -0.259016   -0.620102
C      0.410212    0.583643   -0.428864
C     -1.814790   -0.187759    0.437122
C      1.197303    0.263622    0.773216
N      1.273423    0.342533   -1.587329
O     -2.891901    0.481348    0.238147
O     -1.688289   -0.794123    1.667987
O      0.700054    0.329252    1.900470
O      2.547437   -0.121444    0.681828
H     -1.251745    0.109479   -1.599084
H     -0.509181   -1.300880   -0.838769
H      0.123100    1.673222   -0.446731
H      0.643541    0.446895   -2.430293
H      1.476699   -0.679294   -1.561110
H     -2.374735   -0.669651    2.415678
H      2.976823   -0.735209    1.397835
