116

C     -5.065149   -3.840805   -4.250008
C      5.959237   -3.043778    0.185589
C      8.885493    0.286089    2.504801
C     -1.700922    2.915174   -2.911056
C     -0.971254   -2.703177    2.547626
C      3.485972   -0.473015   -3.437684
C     -5.799178   -2.598729   -3.865030
C      4.584014   -2.435240    0.277366
C     -6.206077    4.268085    2.025636
C     -5.188538    5.158774    1.814575
C      4.314650   -2.006624    3.317082
C     -6.050346    2.906253    1.828629
C     -3.973048    4.657592    1.390164
C     -5.202659   -0.110721    1.272348
C      5.108551   -1.517540    2.401954
C      2.753288    1.316987    2.436807
C      2.871284   -2.147540    3.013237
C     -6.104122   -0.495843    0.188400
C      2.395663    0.114849    3.216508
C      0.356363    0.446992    0.691041
C      0.592563    2.190140   -1.347076
C     -4.013585   -1.894385   -2.387019
C     -2.442485   -0.616666   -0.895323
C     -4.621014    0.245646   -1.592076
C     -6.411382   -1.106875   -2.045116
C      3.555227    3.276512   -1.708820
C      7.907588   -0.121435    1.464504
C     -3.811182   -0.959756   -1.192794
C     -4.826301    2.395352    1.400735
C     -4.364260    1.095000    1.118475
C      1.584763    0.996354    0.393725
C     -0.774003    0.760543   -0.025915
C     -3.820481    3.292786    1.193854
C      1.735701    1.884629   -0.635497
C     -0.644539    1.651525   -1.065421
C     -3.073538    1.227561    0.739473
C      3.220568   -0.623015    1.145249
C      3.902533    1.655857    0.250218
C      5.620706   -0.165656    0.482022
C     -1.832289   -0.728342    1.495077
C      4.795177    0.553534   -1.700515
C     -5.488085   -2.152971   -2.446711
C      4.604536   -1.104320    1.072860
C      2.954847    0.834005    1.008882
C     -2.134393    0.166276    0.339194
C      5.092276    0.977702   -0.316238
N     -2.778220    2.559735    0.797441
N     -5.927612   -0.079816   -1.137396
N      2.433788   -0.980096    2.283370
N      3.100772    2.325515   -0.751165
O      4.740371    3.647201   -1.764499
O      8.278140   -0.820832    0.490867
O     -2.178398   -0.349466    2.631995
O      5.620671    0.823503   -2.609543
O     -5.719707   -3.300717   -1.646182
O      6.198839    1.867325   -0.456819
O     -1.727388    2.027234   -1.845048
O     -1.194072   -1.949832    1.370408
O      3.665673   -0.122090   -2.082315
O      6.593887    0.188292    1.439134
H     -4.192258   -3.581458   -4.865860
H     -5.723831   -4.469240   -4.861750
H     -4.805164   -4.394366   -3.320798
H      6.519726   -2.717149   -0.733975
H      5.815214   -4.150119    0.028951
H      6.545794   -2.944424    1.107696
H      9.623148   -0.496871    2.688347
H      8.355857    0.500034    3.462847
H      9.440502    1.193501    2.148021
H     -1.461720    3.961751   -2.591502
H     -2.767678    2.997793   -3.276735
H     -1.129313    2.578145   -3.781192
H     -1.922550   -3.158075    2.937423
H     -0.621035   -2.031969    3.382828
H     -0.287800   -3.561010    2.386612
H      3.659248    0.410842   -4.102796
H      2.426571   -0.773545   -3.604163
H      4.195875   -1.256224   -3.777931
H     -5.583967   -1.760581   -4.585387
H     -6.884624   -2.782852   -3.949397
H      3.965658   -3.166429    0.831744
H      4.150559   -2.336250   -0.707536
H     -7.165794    4.681457    2.362912
H     -5.295893    6.238334    1.965489
H      4.741300   -2.301861    4.290863
H     -6.888605    2.243461    2.009202
H     -3.140717    5.325218    1.211164
H     -4.594796   -0.925860    1.736060
H     -5.893504    0.066215    2.184931
H      6.160409   -1.416184    2.624685
H      2.010889    2.133440    2.476695
H      3.733905    1.712925    2.756391
H      2.536590   -3.103815    2.645421
H      2.359451   -2.044411    4.026760
H     -6.169815   -1.629501    0.194278
H     -7.188292   -0.227280    0.422921
H      3.038334   -0.062119    4.106056
H      1.355168    0.162858    3.634589
H      0.294047   -0.259158    1.536829
H      0.725225    2.905478   -2.173168
H     -3.629510   -1.354639   -3.272887
H     -3.418737   -2.819954   -2.279301
H     -1.940552   -0.185925   -1.787278
H     -1.862593   -1.596473   -0.748665
H     -4.233760    1.214016   -1.338051
H     -4.720708    0.329222   -2.727649
H     -7.340294   -1.529906   -1.583741
H     -6.798378   -0.535696   -2.942304
H      2.871544    3.711407   -2.427682
H     -4.227474   -1.569783   -0.383487
H      2.633464   -1.089597    0.265344
H      4.197715    2.521214    0.937856
H      6.219994   -0.770274   -0.227668
H     -1.833007    3.024410    0.581854
H     -4.900803   -3.689703   -1.297147
H      6.178071    2.517242    0.289294
