14

C     -0.892406    0.770378   -0.303941
C     -0.087313   -0.309071    0.414127
C      1.196607   -0.558573   -0.251361
N     -0.847978   -1.536040    0.471505
O     -0.131469    1.916283   -0.334683
O      1.496064   -1.710320   -0.674706
O      2.130558    0.464147   -0.440185
H     -1.799704    0.961918    0.305006
H     -1.233731    0.430668   -1.293881
H      0.066930    0.066979    1.446240
H     -1.060290   -1.815167   -0.512246
H     -1.712599   -1.343673    1.028547
H     -0.254547    2.381136    0.530166
H      3.129877    0.281334   -0.384587
