28

C     -1.093894   -1.078862   -0.133778
C      1.990850    0.681501   -0.265804
C     -2.576914    1.343636   -1.204560
C      3.331626    0.505925   -0.632170
C     -2.350705   -0.410474    0.454193
C     -1.965496    1.027540    0.165945
C     -0.103442   -0.160112    0.523288
C      3.890724   -0.749934   -0.555170
C      1.817360   -1.553034    0.220155
I      4.519546    2.102547   -1.297176
N      3.124319   -1.752696   -0.131430
N      1.245474   -0.352936    0.157811
O     -3.966773    1.246443   -1.050969
O     -2.352599   -0.578237    1.819407
O      5.230055   -0.980664   -0.910384
O      1.199830   -2.569642    0.602123
O     -0.593892    1.091982    0.140035
H     -1.056113   -2.110723    0.198221
H     -1.055201   -0.917202   -1.216806
H      1.584016    1.690719   -0.340366
H     -2.252423    2.310947   -1.581334
H     -2.297337    0.567832   -1.944763
H     -3.259866   -0.729654   -0.057537
H     -2.429442    1.738384    0.877034
H     -0.285875   -0.245066    1.634075
H     -4.306635    2.044704   -0.556823
H     -1.921163   -1.392302    2.139146
H      5.933970   -0.770623   -0.241140
