28

C     -0.621544    0.501363    1.361729
C      2.110083    0.512947    0.262721
C     -2.740777   -0.791107   -1.356240
C      3.231168    0.705467   -0.517797
C     -1.730743    0.753255    0.332462
C     -2.056389   -0.688313   -0.004505
C      0.046675   -0.682532    0.783450
C      3.448365   -0.117837   -1.606839
C      1.449789   -1.234019   -1.057737
I      4.587901    2.240122   -0.043893
N      2.533995   -1.079915   -1.847533
N      1.209375   -0.449561    0.009466
O     -3.925864   -0.075156   -1.347518
O     -2.788508    1.432074    0.886316
O      4.564851    0.037126   -2.424226
O      0.655339   -2.173641   -1.379887
O     -0.875949   -1.380049    0.043148
H     -0.030721    1.369253    1.574742
H     -1.154861    0.197123    2.298207
H      1.936289    1.139615    1.099666
H     -2.980789   -1.849517   -1.534175
H     -2.055130   -0.365141   -2.141941
H     -1.321488    1.230380   -0.574469
H     -2.798463   -1.019269    0.769774
H      0.340541   -1.358136    1.640481
H     -3.778186    0.903262   -1.247589
H     -2.726239    2.411687    0.656154
H      5.471281   -0.169481   -1.990927
