54

C     -2.547165   -0.875804    1.479634
C     -1.953874   -1.725456   -1.843095
C     -0.830118   -0.758688   -2.209597
C      2.099350   -0.095735   -2.133522
C      3.284490    0.796624   -1.801991
C     -4.684768    0.698608    0.578366
C     -3.268747    1.099023    0.242098
C     -4.138354   -1.102066   -1.083989
C      1.140839    1.218536    1.096744
C      4.887089    0.159524    1.641021
C      2.140354   -1.006846    0.570784
C     -2.836385   -0.978516   -0.911890
C     -5.147116   -0.438382   -0.259570
C     -0.085683   -0.458913   -0.928650
C      1.108427    0.402139   -1.157780
C      3.241846    0.965612   -0.267062
C     -0.245420    0.665726    1.276437
C      4.408216    0.195332    0.236305
C     -0.973979    0.399440   -0.016610
C     -2.340222   -0.122023    0.174281
C      1.918112    0.375127    0.153432
O      4.209741    0.979269    2.499275
O      2.272233   -1.286277    1.736342
O     -6.344069   -0.759360   -0.216473
O     -0.158508   -0.462083    2.089511
O      5.094237   -0.509713   -0.534868
H     -2.456969   -0.226044    2.367774
H     -1.965595   -1.813390    1.526905
H     -3.620072   -1.217544    1.492296
H     -2.458926   -1.975218   -2.792180
H     -1.569588   -2.639308   -1.349368
H     -0.130316   -1.236248   -2.918237
H     -1.302018    0.155096   -2.577786
H      2.340369   -1.154915   -2.096741
H      1.738350    0.189126   -3.165426
H      4.237643    0.400824   -2.150959
H      3.162938    1.803540   -2.280004
H     -5.329109    1.569948    0.335259
H     -4.784164    0.509145    1.659458
H     -2.875116    1.714019    1.086572
H     -3.187276    1.711889   -0.666482
H     -4.512324   -1.744455   -1.898823
H      1.576014    1.276800    2.122919
H      1.025958    2.231929    0.651748
H      5.978396    0.481325    1.677686
H      4.956818   -0.904591    2.021681
H      2.188241   -1.791075   -0.165345
H      0.203926   -1.390462   -0.412012
H      0.844998    1.437213   -1.386745
H      3.342027    2.011146    0.019533
H     -0.827105    1.457652    1.822539
H     -1.003003    1.400925   -0.543339
H      4.079357    0.509434    3.361698
H      0.096018   -0.141862    2.995162
