49

C      1.457816   -1.773668   -0.954637
C     -2.799558   -0.234673   -1.533823
C      1.377376    1.757612   -0.477366
C      0.058541    2.003684    0.155745
C     -2.862396    2.002254    0.414307
C     -4.301938    1.498462    0.313643
C      3.623458   -0.254232    1.189788
C     -0.842337   -1.687864    0.239652
C      2.353876   -1.037284    1.168339
C     -2.291016   -1.581510    0.526440
C      3.295414    0.511351   -1.190526
C      1.980811    0.602753   -0.524487
C      4.260473    0.014632   -0.129067
C     -0.725313    0.732934   -0.017929
C     -2.069852    0.784531    0.642413
C     -0.012448   -0.477166    0.531461
C     -4.222610    0.004084    0.398216
C      1.404172   -0.620533    0.061517
C     -2.867449   -0.316097   -0.037233
O      5.040315   -1.032441   -0.607649
O     -5.150904   -0.683246    0.764122
H      1.109879   -2.672862   -0.414086
H      0.958000   -1.539484   -1.886234
H      2.539157   -2.000887   -1.197760
H     -2.065116   -0.894082   -1.997806
H     -2.711735    0.834444   -1.869407
H     -3.808347   -0.572271   -1.913992
H      1.864315    2.630241   -0.935344
H     -0.501826    2.819399   -0.315035
H      0.234999    2.151219    1.232532
H     -2.565014    2.591998   -0.464767
H     -2.793521    2.666230    1.304982
H     -4.936145    1.925678    1.105484
H     -4.655306    1.772778   -0.698211
H      3.524187    0.691434    1.800986
H      4.369264   -0.864407    1.782952
H     -0.488159   -2.589261    0.826652
H     -0.740638   -1.936870   -0.849935
H      2.608384   -2.115557    1.141221
H      1.845651   -0.875686    2.151910
H     -2.806953   -2.428179    0.028410
H     -2.554934   -1.616417    1.604958
H      3.293534   -0.180236   -2.057475
H      3.589398    1.495568   -1.608786
H      4.984532    0.867851    0.034408
H     -0.834372    0.567621   -1.114841
H     -2.017252    0.501290    1.723283
H      0.037435   -0.325888    1.649351
H      5.814152   -1.117246    0.003623
