53

C     -3.102812    0.119428   -0.417420
C      3.348721   -0.250226    0.273402
C      2.625355    0.798224    0.771267
C      2.715705   -1.133680   -0.597091
C      1.306701    0.972808    0.419287
C      1.403827   -0.962115   -0.948801
C     -0.709562    0.344636   -0.768094
C     -1.723381   -0.290108    0.123915
C      0.683371    0.092951   -0.445081
N     -1.670071    0.158337    1.482077
C     -1.764733   -1.151339    0.999516
C      3.222814    0.091146    0.576625
C      2.561390   -1.045923    0.168160
C      2.578527    1.310939    0.541486
C      1.240109   -0.986657   -0.284541
C      1.256966    1.349266    0.085423
C     -0.783530    0.311641   -0.789692
C     -1.818711    0.152435    0.286212
C      0.594734    0.219082   -0.322251
N     -3.126295    0.259740   -0.359768
O      1.392231   -0.470917   -0.619966
O     -1.224499   -0.905316    0.188603
O      0.309909    0.799788    1.354905
O     -0.524175    1.324720   -0.892698
S      0.007207    0.230950   -0.010354
H     -3.916030   -0.307052    0.191580
H     -3.230277   -0.232825   -1.469487
H     -3.224582    1.222311   -0.380643
H      4.389008   -0.394036    0.546674
H      3.097084    1.506141    1.455908
H      3.308237   -1.964046   -0.984260
H      0.784167    1.832540    0.853157
H      0.941542   -1.668969   -1.629242
H     -0.889476    1.439950   -0.761059
H     -0.870354    0.040143   -1.836114
H     -1.715495   -1.381647    0.130240
H     -2.566409    0.385764    1.910999
H     -0.985271   -0.328529    2.078786
H     -0.893928   -1.242797    1.680262
H     -1.817692   -2.025665    0.303396
H     -2.667924   -1.231251    1.639974
H      4.238638    0.055767    0.926253
H      3.087822   -2.000344    0.203476
H      3.096706    2.206129    0.862131
H      0.786704   -1.928349   -0.589829
H      0.807991    2.335060    0.082076
H     -0.934827   -0.435085   -1.595739
H     -0.997111    1.306666   -1.281650
H     -1.768324    0.963591    1.030615
H     -3.042672    0.886433   -1.180207
H     -3.856654    0.599517    0.283168
H      2.138028   -0.472231    0.022462
H     -2.098702   -0.506995   -0.042952
