14

C      0.830515   -0.622015   -0.365321
C     -0.310882    0.357485   -0.166756
C     -1.319341   -0.311182    0.674867
N      0.166824    1.592241    0.394997
O     -1.722572    0.147505    1.770905
O     -1.838347   -1.514116    0.209617
S      2.119535    0.100356   -1.383714
H      0.459172   -1.530061   -0.870846
H      1.192172   -0.928632    0.629374
H     -0.747055    0.577263   -1.155472
H      0.751466    2.059248   -0.342155
H     -0.663620    2.218250    0.529360
H     -2.297040   -2.185995    0.800497
H      3.379173    0.039651   -0.725353
