20

C     -1.547406   -1.290989   -0.018848
C     -1.203270    1.104536    0.228608
C      0.741683   -0.438980    0.524329
C      1.681504    0.688804    0.290788
C     -0.555536   -0.186746   -0.214825
N      1.365816   -1.675129    0.118473
O      2.829311    0.504290   -0.191782
O      1.335118    1.998778    0.594910
S     -0.173962   -0.025785   -1.985410
H     -1.394407   -1.722740    0.995996
H     -1.412238   -2.040845   -0.820277
H     -2.597752   -0.948408   -0.050940
H     -0.812102    1.979166   -0.328618
H     -2.281878    1.032114   -0.041887
H     -1.145672    1.194022    1.314446
H      0.497897   -0.536791    1.615059
H      0.748325   -2.258352   -0.491908
H      2.238162   -1.494992   -0.464960
H      1.841356    2.792483    0.206873
H     -0.154950    1.325563   -2.350325
