14

C     -0.958792   -0.806917   -0.548987
C      0.222407    0.139245   -0.677201
C      1.180564   -0.097511    0.430602
N     -0.211582    1.506119   -0.611300
O      1.497540    0.815097    1.243621
O      1.746814   -1.337410    0.589591
S     -1.836354   -0.577410    1.005948
H     -0.601540   -1.832286   -0.688806
H     -1.644330   -0.563613   -1.384468
H      0.756476    0.005004   -1.637879
H     -1.223058    1.613125   -0.791694
H      0.099017    1.999450    0.240626
H      2.455908   -1.543293    1.301786
H     -1.483070    0.680401    1.528159
