35

C     -1.188799   -0.939199   -0.813146
C     -1.199074    0.827445    0.770956
C     -3.158462    0.563023   -0.714781
C      3.038252    0.356301   -0.516169
C      4.300935   -1.026352    0.995429
C     -1.820624    0.137498   -0.246032
C      3.096450   -0.569583    0.504483
C      4.212674    0.831507   -1.052895
C      5.496550   -0.559240    0.467402
C      0.046107   -1.351128   -0.397702
C      0.043475    0.438178    1.211671
C     -4.210151   -0.173229    0.104084
C      5.410741    0.365659   -0.551867
C      0.667755   -0.655140    0.624789
C     -5.531848    0.275469   -0.390375
I      4.120706    2.241413   -2.607064
I      7.337597   -1.252448    1.212342
I      1.008278   -3.011337   -1.279831
I      0.987958    1.506869    2.775301
N     -4.096227    0.089042    1.501661
O      6.582453    0.860483   -1.110205
O     -6.332187    0.794614    0.424686
O     -5.945099    0.158274   -1.704725
O      1.918677   -1.059388    1.057346
H     -1.698567   -1.468492   -1.614306
H     -1.728783    1.676179    1.197840
H     -3.292942    1.648515   -0.503146
H     -3.338475    0.380133   -1.777163
H      2.086617    0.707651   -0.893543
H      4.353373   -1.762222    1.806560
H     -4.121370   -1.274077   -0.042695
H     -3.380871   -0.450761    1.999322
H     -4.216940    1.066306    1.783308
H      7.491363    0.562098   -0.790798
H     -6.939539    0.065937   -1.959493
