23

C     -0.509066   -1.430353    0.635688
C     -1.806957   -1.785004    0.343849
C     -0.829835    0.731071   -0.218447
C      2.256870    0.046062   -0.564313
C      0.003937   -0.189054    0.368179
C     -2.617477   -0.832470   -0.246605
C     -2.118152    0.420283   -0.522472
C      1.413488    0.117051    0.712627
N      3.645852    0.253979   -0.168308
O     -3.917966   -1.117064   -0.563631
O     -2.950831    1.370921   -1.119356
O      1.550640    1.340290    1.324895
H      0.139007   -2.181037    1.104004
H     -2.175715   -2.762941    0.565928
H     -0.423833    1.712020   -0.429660
H      2.199395   -0.965655   -0.989967
H      1.913995    0.842528   -1.258031
H      1.790871   -0.653761    1.416201
H      4.266296   -0.127316   -0.909276
H      3.799852    1.268412    0.003495
H     -4.513630   -0.432355   -0.992239
H     -2.594517    2.289605   -1.324842
H      1.477776    2.084787    0.676071
