28

C     -0.701358   -0.964181   -0.967828
C      2.193500   -0.756965   -0.691513
C     -3.148303    1.061021    0.947853
C      3.484611   -1.031393   -0.227007
C     -2.083351   -0.789428   -0.370306
C     -2.062838    0.666764   -0.018151
C      0.011887    0.270650   -0.474676
C      3.890836   -0.515943    0.988154
C      1.753663    0.486176    1.192460
F      4.342337   -1.790731   -0.943435
N      3.005178    0.235010    1.669093
N      1.340759   -0.006861    0.012188
O     -2.894713    2.402106    1.311504
O     -3.093302   -1.123863   -1.257772
O      5.161870   -0.760634    1.490668
O      0.928802    1.193436    1.840614
O     -0.787191    0.775688    0.574191
H     -0.210069   -1.896216   -0.633385
H     -0.800742   -0.907767   -2.072704
H      1.940075   -1.183450   -1.635977
H     -4.097209    1.085130    0.381513
H     -3.214753    0.412564    1.820507
H     -2.148504   -1.379253    0.562195
H     -2.069465    1.334050   -0.878417
H      0.034165    1.076970   -1.243430
H     -2.841872    2.936693    0.487384
H     -3.897843   -0.647034   -0.989464
H      5.963831   -0.182539    1.233115
