26

C     -2.640422   -0.530361    0.444778
C      2.593308    0.213714   -0.662810
C     -1.691544   -0.378802   -0.738938
C      1.843765    0.052216    0.646916
C     -0.426971    0.358202   -0.371972
C      0.455844   -0.507278    0.445393
O     -3.778507   -1.212598   -0.036859
O      3.894764    0.614571   -0.466706
O     -2.407772    0.343824   -1.718305
O      2.543294   -0.926405    1.388245
O     -0.683431    1.617250    0.165400
O     -0.085237   -0.707459    1.699587
H     -2.975684    0.467796    0.790457
H     -2.246880   -1.174276    1.239310
H      2.066524    0.961242   -1.315401
H      2.603608   -0.746770   -1.216586
H     -1.460491   -1.376148   -1.149323
H      1.797307    0.997181    1.201952
H      0.085123    0.522473   -1.384890
H      0.546491   -1.485729   -0.092880
H     -4.447983   -0.551806   -0.304142
H      3.968255    1.494041   -0.023920
H     -2.384568    1.298183   -1.447818
H      2.743779   -1.657236    0.721495
H      0.035703    2.211225   -0.120632
H      0.051724    0.102949    2.231679
