54

C     -2.522057    2.166405    0.014876
C      1.915645    1.319843    0.108160
C     -2.765157   -0.014775   -1.794835
C     -1.364171   -0.501086   -1.779113
C     -4.356080    0.151615    2.151521
C      1.461601   -1.177278   -1.636160
C     -3.235440    0.744861    1.869083
C      2.582909   -1.922950   -0.862042
C     -4.504187   -0.605893   -0.195597
C      0.948175   -0.237400    1.800213
C      4.609580    0.231483   -1.188773
C     -3.380094    0.004194   -0.426870
C     -5.098027   -0.583156    1.138477
C     -0.515714    0.128425   -0.684902
C      0.635999   -0.781844   -0.484867
C     -0.438293    0.320012    1.832058
C      4.116159   -0.327849    0.063293
C     -1.272223    0.066192    0.647600
C     -2.593696    0.762498    0.578630
C      1.628527   -0.096511    0.440366
C      2.821973   -0.980394    0.327285
O      5.904576    0.780426   -1.057648
O     -6.185647   -1.166338    1.387815
O     -0.347644    1.605626    2.312178
O      4.892696   -0.249248    1.034163
O      2.898544   -1.751321    1.525487
H     -2.881032    2.858363    0.822551
H     -3.278148    2.342257   -0.805026
H     -1.566320    2.456463   -0.404670
H      1.817853    1.569627   -0.967688
H      2.937641    1.614096    0.424896
H      1.257364    2.038904    0.687132
H     -3.369784   -0.705202   -2.409145
H     -2.838059    0.982628   -2.279942
H     -0.887812   -0.208358   -2.749249
H     -1.275629   -1.610056   -1.736647
H     -4.804031    0.167982    3.153921
H      1.870931   -0.366585   -2.235174
H      0.939753   -1.951451   -2.250745
H     -2.758233    1.272768    2.714211
H      3.466880   -2.066563   -1.473972
H      2.105397   -2.845993   -0.483258
H     -4.998836   -1.131847   -0.998247
H      0.975467   -1.331134    2.033153
H      1.600391    0.255000    2.528642
H      4.685901   -0.521015   -2.012301
H      3.989652    1.047881   -1.564285
H     -0.156913    1.117777   -0.941320
H      0.299861   -1.705265    0.042535
H     -0.934841   -0.237854    2.694700
H     -1.536788   -1.042555    0.697682
H      6.496323   -0.022301   -0.907298
H     -0.797838    2.308212    1.851441
H      3.802892   -2.171315    1.481894
