44

C     -2.422102   -1.031245    1.190704
C      2.343765    1.528986    0.750843
C      3.951542   -1.963723   -1.037967
C      0.883675    1.800859    0.541093
C      2.591565   -1.698767   -1.137020
C     -2.093615    1.700930    1.062386
C     -3.529916    1.576610    0.548822
C     -0.282692   -1.556565   -0.746245
C     -1.689899   -1.125915   -1.187313
C      4.183791    0.028243    0.200493
C      2.811647    0.294202    0.099733
C      4.755587   -1.082716   -0.357207
C      2.012075   -0.590541   -0.582393
C      0.582801   -0.345406   -0.706570
C      0.056224    0.543588    0.430449
C     -1.326630    0.926761    0.056454
C     -3.530547    0.411594   -0.420383
C     -2.248673   -0.290711   -0.100029
O      6.123124   -1.342530   -0.253612
O     -4.645198   -0.406211   -0.231693
H     -1.552552   -1.033565    1.845015
H     -2.719185   -2.083424    0.943278
H     -3.300887   -0.620315    1.764031
H      2.904834    2.375375    0.286574
H      2.629144    1.544377    1.828691
H      4.407381   -2.846887   -1.481093
H      0.686368    2.429685   -0.355660
H      0.513159    2.350110    1.429405
H      2.030479   -2.458930   -1.699606
H     -2.073655    1.138467    2.027157
H     -1.795508    2.756543    1.172177
H     -4.228831    1.408527    1.394642
H     -3.767872    2.533971    0.006845
H     -0.444660   -2.020067    0.269688
H      0.016923   -2.343239   -1.432334
H     -2.277002   -2.063487   -1.267289
H     -1.652263   -0.545992   -2.119656
H      4.836892    0.715128    0.736230
H      0.356605    0.248198   -1.640929
H      0.134478    0.020302    1.398499
H     -1.316864    1.473731   -0.891607
H     -3.490813    0.787105   -1.477852
H      6.731966   -0.705586    0.243777
H     -5.154662   -0.437469   -1.100525
