42

C     -3.816039   -1.425557    0.812826
C     -2.792911   -0.330541    0.645977
C     -1.455734   -0.697664    1.228515
C     -0.613873    0.488969    1.339532
C      0.612885    0.174973    0.789209
C      1.650234    1.081904    0.735629
C      1.473869    2.363440    1.248745
N      0.270311    2.674754    1.789629
C     -0.736969    1.783856    1.838178
O     -1.855322    2.068950    2.339350
C      2.923761    0.691543    0.143256
C      3.552169   -0.508678    0.407813
C      4.754297   -0.870422   -0.155078
C      5.380459   -0.007932   -1.029073
C      4.782191    1.204898   -1.319721
C      3.569439    1.538884   -0.734748
O      0.582346   -1.148619    0.334956
C     -0.800781   -1.455355    0.095528
C     -1.334732   -0.763841   -1.081031
C     -2.459515   -0.121739   -0.793932
C     -3.307516    0.699291   -1.721193
O     -2.788895    0.738876   -2.992936
C     -1.069643   -2.918687    0.133262
H     -4.043726   -1.833570   -0.196024
H     -3.481614   -2.218568    1.513126
H     -4.774439   -1.021638    1.202813
H     -3.177974    0.568400    1.131935
H     -1.530006   -1.295334    2.153588
H      2.295428    3.066138    1.200802
H      0.110786    3.622752    2.179554
H      3.048414   -1.176844    1.096744
H      5.238326   -1.827878    0.066924
H      6.323701   -0.313777   -1.458574
H      5.293247    1.856163   -2.003937
H      3.100149    2.489989   -0.962604
H     -0.882636   -0.766889   -2.062274
H     -4.325419    0.251942   -1.666189
H     -3.382913    1.724426   -1.335112
H     -3.047966    1.611735   -3.415857
H     -1.850585   -3.258965   -0.551965
H     -0.130289   -3.454395   -0.150285
H     -1.302511   -3.284991    1.174384
