52

C      6.423401    1.444079   -0.749563
C      5.608140    0.173093   -0.901874
C      4.172438    0.529769   -0.633627
C      3.283446   -0.669879   -0.761008
O      3.838505   -1.737100   -1.056972
C      1.838153   -0.550573   -0.540215
C      1.024402   -1.660608   -0.683416
C     -0.319260   -1.504867   -0.460257
C     -0.830843   -0.242794   -0.097845
C     -0.045518    0.842451    0.046405
C      1.329741    0.684331   -0.183051
C     -0.538030    2.154337    0.520091
C     -1.877962    2.218493    0.832842
C     -2.459257    3.448291    1.206249
C     -1.658300    4.560043    1.250117
C     -0.324352    4.469838    0.936764
C      0.253129    3.260969    0.566679
O     -3.793361    3.497253    1.511409
C     -2.652826    1.005893    0.857208
O     -3.663055    0.961090    1.627947
C     -2.294023   -0.151534    0.018838
C     -2.920047   -1.393251    0.480973
C     -2.739890   -2.147982    1.631119
C     -3.491961   -3.300284    1.794581
C     -4.407956   -3.720738    0.859475
C     -4.560781   -2.947987   -0.268893
C     -3.812870   -1.770626   -0.467532
C     -3.800709   -0.802192   -1.556416
O     -4.532236   -0.867449   -2.613265
O     -2.890512    0.132680   -1.217896
O     -1.179273   -2.572742   -0.586275
C      1.573453   -2.969110   -1.069561
H      6.108099    2.186989   -1.516189
H      7.519436    1.206139   -0.827224
H      6.239171    1.837107    0.259751
H      5.708373   -0.234727   -1.936426
H      5.993316   -0.597299   -0.226212
H      4.067331    1.004998    0.355802
H      3.820953    1.268309   -1.377792
H      2.029771    1.487886   -0.093944
H     -2.043965    5.545173    1.531556
H      0.319302    5.364462    0.973552
H      1.292161    3.179158    0.318926
H     -4.230000    4.363247    1.780408
H     -2.036854   -1.876485    2.407880
H     -3.353167   -3.893698    2.694472
H     -5.009155   -4.607630    0.950501
H     -5.267495   -3.227466   -1.042149
H     -1.002865   -3.507387   -0.822314
H      2.361668   -3.348921   -0.379734
H      0.823523   -3.718232   -1.287236
H      2.108611   -2.804516   -2.056658
