46

C     -0.370056    1.110658   -0.038036
C      0.956503    0.838963    0.629883
N      1.330623   -0.525606    0.649146
C      0.309981   -1.464180    0.970338
C     -0.987595   -1.214264    0.229446
C     -1.410823    0.194729    0.601521
C     -2.770859    0.516738    0.177431
C     -3.706457    0.888268    1.117727
C     -5.014004    1.205074    0.769204
C     -5.422878    1.157283   -0.545982
C     -4.493887    0.786527   -1.494844
C     -3.182527    0.470132   -1.134357
F     -6.710992    1.468003   -0.900603
C     -2.008288   -2.237991    0.664664
O     -3.204805   -2.043576    0.011526
C      2.229293   -0.958577   -0.365673
C      3.506606   -0.213374   -0.245766
C      3.857287    0.529626    0.859905
C      5.059743    1.219724    0.939202
C      5.923649    1.146177   -0.141148
C      5.567474    0.401297   -1.244272
C      4.375589   -0.285178   -1.327932
Cl     0.691832    0.000000    0.000000
H     -0.333530    0.825677   -1.114310
H     -0.606342    2.173490    0.114333
H      1.713530    1.401619    0.007487
H      0.923594    1.351918    1.604508
H      0.709897   -2.486685    0.771464
H      0.051048   -1.380564    2.064732
H     -0.787840   -1.320100   -0.853741
H     -1.257091    0.285723    1.695416
H     -3.427354    0.938722    2.161965
H     -5.749672    1.496912    1.506092
H     -4.815572    0.748725   -2.531231
H     -2.499561    0.187332   -1.915908
H     -1.608277   -3.231047    0.371585
H     -2.091386   -2.223600    1.759773
H     -3.965889   -2.459633    0.489948
H      1.773091   -0.819559   -1.371828
H      2.409861   -2.052244   -0.207348
H      3.184175    0.583950    1.704077
H      5.301897    1.799390    1.835511
H      6.858214    1.688103   -0.068380
H      6.268747    0.369160   -2.066044
H      4.114884   -0.867739   -2.209967
H     -0.691832    0.000000    0.000000
