41

C     -3.766486   -1.547749   -1.622631
C     -3.075660   -0.601168   -0.658955
C     -2.072020   -1.024451    0.076955
C     -1.659571   -2.465839   -0.091856
C     -1.337552   -0.131189    1.028896
C     -1.985268    1.174460    1.160994
C     -1.335943    2.285919    0.880470
C      0.048051    2.312016    0.434798
C      0.687969    1.114777    0.316030
O      0.020123   -0.032741    0.616974
C      2.017725    1.133531   -0.115460
C      2.656841    2.317999   -0.409206
N      2.003599    3.487302   -0.283825
C      0.719866    3.475919    0.132110
O      0.101933    4.560498    0.252292
C      2.695629   -0.133747   -0.241643
C      2.113651   -1.233291   -0.838099
C      2.772073   -2.439509   -0.952690
C      4.049597   -2.577333   -0.465409
C      4.654728   -1.480010    0.139967
C      3.994333   -0.288347    0.249046
C     -3.406566    1.250267    1.667634
H     -3.123287   -1.684973   -2.493470
H     -4.705289   -1.074060   -1.929943
H     -3.981672   -2.516718   -1.125905
H     -3.397907    0.429154   -0.584639
H     -2.486470   -3.139745    0.212924
H     -0.706308   -2.671308    0.404046
H     -1.532620   -2.606897   -1.196954
H     -1.324536   -0.612158    2.028663
H     -1.868096    3.219092    0.990546
H      3.687577    2.265643   -0.738753
H      2.527774    4.356250   -0.517119
H      1.091497   -1.172318   -1.243853
H      2.325137   -3.309442   -1.418970
H      4.615408   -3.486046   -0.522684
H      5.662022   -1.549915    0.536676
H      4.510567    0.535088    0.729186
H     -3.986478    1.985767    1.110874
H     -3.818327    0.244710    1.746801
H     -3.386046    1.630559    2.736180
