92

C      5.232054    1.495324    3.439315
C      5.620492    1.343331    1.995203
C      4.725251    1.140149    1.065979
C      5.144354    0.996167   -0.348023
C      3.963678    1.326734   -1.261992
C      2.901662    0.278870   -1.182346
N      2.541374   -0.366058   -2.247617
C      1.530252   -1.376141   -2.225921
C      0.935603   -1.607940   -0.877254
O      0.053317   -2.479708   -0.815576
C      1.341274   -0.881053    0.301966
C      2.300436    0.026822    0.115613
S      2.960780    1.015924    1.488413
C      0.825155   -1.056181    1.651173
C     -0.580398   -0.704041    1.926542
C     -1.648387   -1.435705    1.268501
C     -2.437834   -0.843377    0.407861
C     -3.494531   -1.571657   -0.241049
N     -3.669535   -2.831730    0.031645
C     -2.897071   -3.607378    0.942886
C     -1.834845   -2.851642    1.638213
O     -1.109797   -3.394573    2.518585
C     -3.759452   -4.260504    2.019319
C     -2.196266   -4.708623    0.132159
C     -4.378855   -0.959594   -1.216764
C     -4.898596    0.406562   -0.966066
C     -4.017936    1.327208   -0.247490
C     -4.473827    2.447010    0.250446
C     -5.918953    2.698550    0.034073
O     -6.301375    3.906052   -0.146190
C     -6.811010    1.546270    0.041829
N     -6.233933    0.366684   -0.440239
C     -7.220236    1.286997    1.505625
C     -8.101560    1.940375   -0.654346
C     -3.651932    3.427437    0.975524
S     -2.323085    0.887947   -0.038212
C     -5.061020    1.037719   -2.372947
C      0.456595   -1.147204   -3.263439
C      2.244134   -2.694630   -2.566299
N      6.231781    1.891090   -0.682199
C      7.324651    1.888013    0.226114
C      7.016302    1.406769    1.588790
O      7.913519    1.052087    2.405266
C      8.520193    1.111783   -0.295103
C      7.786104    3.347828    0.360506
C      5.584257   -0.408354   -0.696013
H      4.170321    1.218753    3.521779
H      5.482717    2.489824    3.813378
H      5.803424    0.715916    3.985758
H      4.333566    1.484737   -2.280355
H      3.527842    2.283960   -0.896387
H      1.087666   -2.106399    1.954204
H      1.447427   -0.441259    2.373886
H     -0.693277    0.394485    1.651494
H     -0.816318   -0.691043    3.027246
H     -4.695664   -4.639866    1.569732
H     -3.161180   -5.087781    2.432229
H     -3.971548   -3.490047    2.781245
H     -1.265629   -4.959534    0.662781
H     -2.891497   -5.586894    0.087574
H     -1.958471   -4.340042   -0.875726
H     -5.278814   -1.624952   -1.418716
H     -3.832782   -1.017146   -2.213362
H     -6.425640   -0.471898    0.149056
H     -7.413705    2.228684    2.042081
H     -6.471324    0.647153    2.004395
H     -8.160146    0.717040    1.459466
H     -8.641062    2.614987    0.047304
H     -8.761719    1.086460   -0.857871
H     -7.851935    2.544569   -1.546241
H     -4.243780    4.201010    1.475868
H     -2.978290    3.961656    0.254031
H     -2.960588    2.940974    1.717366
H     -4.028661    1.192251   -2.737498
H     -5.544625    2.013666   -2.304830
H     -5.635316    0.372169   -3.029674
H     -0.440314   -0.722824   -2.803284
H      0.197456   -2.140105   -3.732719
H      0.888487   -0.536595   -4.072667
H      3.235852   -2.734792   -2.060321
H      1.662913   -3.564601   -2.216039
H      2.402110   -2.774134   -3.644248
H      6.535180    1.787370   -1.662603
H      8.685936    0.189248    0.317347
H      8.318207    0.854914   -1.334207
H      9.449270    1.708849   -0.216377
H      8.865734    3.368307    0.641702
H      7.234155    3.860568    1.173876
H      7.651358    3.870775   -0.605970
H      4.673249   -1.026675   -0.857150
H      6.236794   -0.842896    0.090015
H      6.099835   -0.362448   -1.676687
