47

C     -6.153758    1.255923   -0.459010
C     -5.864928    2.723531   -0.645887
C     -4.904761    1.874980    0.130548
C     -3.643590    1.447912   -0.515133
O     -3.616292    1.261300   -1.737377
N     -2.483271    1.256618    0.264341
C     -1.198987    0.838666   -0.253924
C     -1.190707   -0.502548   -0.900815
C     -1.561502   -1.637102   -0.050989
C     -0.638749   -2.354893    0.666382
C     -1.094361   -3.410792    1.446418
C     -2.430941   -3.727194    1.497608
C     -3.379606   -3.022807    0.786569
C     -2.917625   -1.982146    0.019811
F     -2.849659   -4.767013    2.270471
N     -0.014465   -0.716606   -1.693560
C      1.312518   -0.444956   -1.339698
N      2.353248   -0.713555   -2.184407
C      3.625827   -0.436609   -1.868073
C      3.937490    0.140331   -0.655925
C      2.871261    0.400193    0.175345
N      1.603930    0.114819   -0.161017
C      5.323188    0.441404   -0.312529
N      6.407973    0.216097   -1.071051
N      7.483747    0.622887   -0.418798
C      7.078567    1.117113    0.778368
O      5.781781    0.984326    0.788979
C      7.956577    1.690853    1.849414
F      8.649491    2.756480    1.347004
F      8.793850    0.680041    2.291850
H     -6.953663    1.000416    0.282262
H     -6.062492    0.569328   -1.317195
H     -5.588805    3.046108   -1.670816
H     -6.482754    3.457073   -0.078221
H     -4.874030    2.029039    1.235503
H     -2.564419    1.433207    1.303659
H     -0.914490    1.606191   -1.015299
H     -0.414071    0.917258    0.545455
H     -2.051523   -0.406899   -1.699324
H      0.429360   -2.145400    0.652649
H     -0.341165   -3.971401    2.011922
H     -4.425681   -3.286696    0.839567
H     -3.663492   -1.415794   -0.555821
H     -0.131597   -1.136711   -2.680109
H      4.456933   -0.646701   -2.532833
H      3.054403    0.849503    1.133442
H      7.291238    1.994222    2.682727
