65

C      5.740374   -0.572788   -1.568226
C      4.807563   -1.015221   -0.467568
C      4.282584   -2.401923   -0.669241
C      3.152345   -2.401582    0.399148
C      2.478022   -1.135630    0.023537
C      1.151652   -0.973728    0.079291
C      0.159305    0.054309   -0.195328
C     -1.250383   -0.551056   -0.021288
C     -2.189716    0.409387   -0.652211
C     -3.554015    0.074252   -0.970396
C     -4.379147    1.156544   -0.249503
C     -3.384616    2.336044   -0.340924
C     -2.200773    1.608883    0.311979
C     -0.902893    2.272394    0.102072
C      0.227217    1.336965    0.543414
C      1.459478    2.128469    0.399216
C      2.757613    1.912526    0.499920
C      3.698149    0.814956    0.799895
C      3.580960   -0.174884   -0.360031
C      1.247996    3.575976    0.064184
C     -2.577795    1.339197    1.696503
C     -4.084895   -1.287612   -0.789310
C     -4.074935   -1.886644    0.553299
C     -3.405763   -2.210720   -1.770659
C      0.587544   -2.252296    0.621153
H      6.030748   -1.488262   -2.145819
H      6.675154   -0.219582   -1.085338
H      5.287312    0.190124   -2.233811
H      5.317303   -1.016187    0.527174
H      5.020808   -3.183700   -0.370667
H      3.854170   -2.578864   -1.671959
H      2.547012   -3.316031    0.255919
H      3.702302   -2.356103    1.358893
H      0.146534    0.345894   -1.300868
H     -1.260308   -1.504037   -0.532035
H     -1.434523   -0.537585    1.058889
H     -1.670958    0.784760   -1.573142
H     -3.792429    0.317728   -2.059879
H     -4.572026    0.876464    0.794527
H     -5.310547    1.377477   -0.774558
H     -3.206377    2.533618   -1.398953
H     -3.726461    3.180763    0.255386
H     -0.829404    3.232387    0.599494
H     -0.768386    2.320797   -1.024167
H      0.131512    1.087386    1.641353
H      3.344226    2.822498    0.302316
H      4.721348    1.159465    0.921191
H      3.331851    0.325458    1.733180
H      3.375779    0.323684   -1.324025
H      0.577280    3.754453   -0.771679
H      2.208987    4.060396   -0.215891
H      0.936188    4.139374    0.995722
H     -3.330772    2.104629    2.062952
H     -2.988303    0.383148    1.977572
H     -1.703686    1.523836    2.389419
H     -5.170031   -1.249445   -1.118098
H     -4.735567   -2.804563    0.513951
H     -3.118639   -2.236286    0.941640
H     -4.629073   -1.212042    1.269496
H     -2.695093   -1.674258   -2.445009
H     -2.911896   -3.082059   -1.257881
H     -4.133281   -2.703705   -2.479051
H      0.601819   -3.078719   -0.116382
H     -0.388401   -2.144101    1.117875
H      1.239961   -2.614629    1.482656
