49

C     -3.134955   -4.641362   -0.554367
C     -2.169863   -3.491816   -0.550794
C     -2.609990   -2.202920   -0.321458
C     -1.696266   -1.136247   -0.322267
C     -0.365786   -1.344869   -0.550497
C      0.053167   -2.634791   -0.776103
C     -0.847279   -3.716072   -0.775694
C      0.622572   -0.214616   -0.682174
O      0.017335    0.959782   -0.122877
C     -1.294971    1.206698    0.077962
C     -1.751129    2.474471    0.362050
C     -3.111214    2.779813    0.569332
C     -3.976604    1.667608    0.461982
C     -3.560561    0.405822    0.186591
C     -2.232476    0.172112   -0.004101
O     -5.349770    1.901441    0.656342
O     -3.529598    3.960769    0.830315
C     -3.622176    5.214223    1.069181
C      0.484613    0.105809   -2.235187
C      1.906227   -0.378985   -0.333655
C      3.083355   -0.618609   -0.007711
C      4.422700   -0.891435    0.363165
C      5.319646    0.102989    0.544254
C      4.964889    1.528358    0.366172
C      6.694526   -0.256324    0.932885
H     -3.616366   -4.660693    0.459561
H     -2.628731   -5.587678   -0.758839
H     -3.948419   -4.422912   -1.263063
H     -3.659960   -2.103392   -0.144343
H      1.085750   -2.815666   -0.989435
H     -0.446724   -4.680704   -0.963710
H     -0.994604    3.268227    0.420639
H     -4.332500   -0.369053    0.125248
H     -6.033747    1.169304    0.603847
H     -4.678004    5.518397    1.410152
H     -3.406453    5.944001    0.226044
H     -2.935277    5.543365    1.934381
H     -0.058906    1.029102   -2.373922
H      1.506869    0.204065   -2.664181
H      0.035107   -0.786337   -2.666644
H      2.281290    0.966890   -0.449549
H      2.692962   -1.953175    0.135609
H      4.836675   -1.866211    0.524808
H      4.038609    1.835084    0.906719
H      5.823439    2.165138    0.727030
H      4.900899    1.719987   -0.719785
H      7.006223    0.181540    1.892264
H      6.829682   -1.366190    0.952618
H      7.385793    0.115064    0.145845
