87

C     -5.968703    4.637034   -2.378868
C     -5.474972    4.715149   -0.996810
C     -5.147574    3.567697   -0.372136
C     -4.660895    3.649536    0.992221
C     -3.230219    3.311786    1.161818
C     -2.794385    1.957201    0.715671
C     -2.331059    1.004152    1.507464
C     -2.016392   -0.196729    0.705616
C     -3.152886   -1.138585    0.987661
C     -3.171783   -1.908256    2.092252
C     -4.277032   -2.722511    2.326014
C     -5.335407   -2.742542    1.439804
C     -5.333017   -1.963643    0.303468
C     -4.235988   -1.159587    0.079542
O     -6.400125   -1.975304   -0.604541
O     -2.095973   -1.904565    3.002123
C     -0.997757   -1.061311    2.699058
O     -0.342478   -0.616884    3.653368
C     -0.736917   -0.789876    1.253241
C      0.425336    0.136114    1.182274
C      0.874801    0.577988   -0.170649
C      2.041631    1.476902    0.016223
C      3.237707    1.197718   -0.552984
C      3.336362   -0.023364   -1.361070
C      4.359442    2.147268   -0.390359
C      5.527752    1.622400    0.350292
C      6.134820    0.437057   -0.269417
C      7.356623    0.540649   -0.807232
C      7.948502   -0.676660   -1.428363
C      8.065318    1.842578   -0.769633
C     -0.505014   -2.102474    0.570803
C      0.713632   -2.824600    1.050569
O      1.372526   -2.373438    2.009723
C      1.123279   -4.059337    0.386333
C      2.229291   -4.745891    0.794146
C      2.556674   -5.929688    0.103651
C      1.816430   -6.402586   -0.940805
C      0.703210   -5.691707   -1.334766
C      0.364979   -4.517128   -0.661312
O     -0.043768   -6.170466   -2.389743
O      3.051700   -4.382648    1.819589
O     -2.019989    0.208683   -0.599839
C     -2.615199    1.479054   -0.647128
O     -2.933691    2.096393   -1.703743
C     -5.335176    6.038552   -0.301598
H     -5.139679    4.821136   -3.123390
H     -6.726615    5.395941   -2.571566
H     -6.316193    3.596951   -2.615589
H     -5.290292    2.636576   -0.888358
H     -4.918774    4.643707    1.445544
H     -5.298754    2.916437    1.598142
H     -3.017620    3.360631    2.273190
H     -2.549165    4.096943    0.737925
H     -2.207679    1.115478    2.603171
H     -4.251668   -3.321429    3.223646
H     -6.171736   -3.381269    1.649733
H     -4.193037   -0.535390   -0.795707
H     -6.328877   -2.668990   -1.365346
H      0.119737    1.116330    1.708311
H      1.300111   -0.216386    1.733775
H      1.133142   -0.278565   -0.830830
H      0.091897    1.155119   -0.687523
H      1.973471    2.384661    0.614021
H      2.539897   -0.067184   -2.160012
H      3.382404   -0.967480   -0.830259
H      4.273154    0.063528   -1.991740
H      4.666612    2.578989   -1.388059
H      3.979980    3.051165    0.175357
H      6.336572    2.420345    0.417385
H      5.288323    1.432390    1.438041
H      5.613559   -0.529043   -0.265749
H      8.602843   -1.162265   -0.700191
H      8.610311   -0.378655   -2.285872
H      7.127051   -1.306728   -1.795785
H      7.493786    2.670925   -1.228482
H      8.345071    2.121743    0.265081
H      9.031022    1.724063   -1.316224
H     -0.488027   -2.003564   -0.541529
H     -1.348004   -2.793641    0.781057
H      3.436666   -6.450204    0.449368
H      2.069339   -7.312321   -1.469929
H     -0.532067   -3.996085   -1.020583
H      0.118265   -5.926929   -3.356544
H      3.078915   -3.648942    2.448638
H     -6.150462    6.117766    0.459755
H     -5.429961    6.823589   -1.055579
H     -4.337135    6.136528    0.184205
