73

C     -5.430961    2.917354    2.916263
O     -4.700719    2.071956    2.049235
C     -5.415576    1.256832    1.188027
C     -6.815312    1.268461    1.175247
C     -7.512125    0.449609    0.310482
C     -6.801890   -0.373968   -0.534189
C     -5.413040   -0.380472   -0.516267
C     -4.707261    0.432944    0.343002
P     -2.882289    0.458277    0.401832
C     -2.273229    0.691252   -1.300906
C     -1.947997    1.962174   -1.719176
C     -1.477190    2.194386   -3.013156
C     -1.340403    1.138703   -3.870128
C     -1.663238   -0.128089   -3.457184
C     -2.128022   -0.350303   -2.176746
C     -2.333699   -1.158829    1.083741
C     -3.217078   -2.009389    1.713651
C     -2.846148   -3.229388    2.238054
C     -1.508194   -3.574324    2.100936
C     -0.619175   -2.724772    1.470228
C     -1.016623   -1.508904    0.954027
O      0.028459   -0.897464    0.406315
C      1.100110   -1.644282    0.531861
C      0.731183   -2.813722    1.202200
C      1.671402   -3.793285    1.474579
C      2.993151   -3.596136    1.070066
C      3.327317   -2.425306    0.407080
C      2.403712   -1.439926    0.127947
P      2.835058    0.109592   -0.746895
C      2.366068    1.585583    0.219971
C      2.412246    1.648672    1.595546
C      2.047025    2.789817    2.290099
C      1.620902    3.910918    1.616254
C      1.567696    3.868084    0.242042
C      1.936868    2.717667   -0.438365
C      4.653736    0.151272   -0.976931
C      5.479480    0.975409   -0.243634
C      6.843192    1.001593   -0.421411
C      7.387373    0.170580   -1.367815
C      6.622306   -0.665590   -2.122753
C      5.255863   -0.665938   -1.917685
O      4.426842   -1.493437   -2.653986
C      4.911884   -2.376386   -3.645529
H     -6.138470    3.504279    2.304208
H     -6.023204    2.228810    3.582809
H     -4.768606    3.564889    3.524220
H     -7.357382    1.921562    1.845446
H     -8.607480    0.444141    0.285315
H     -7.358229   -1.027131   -1.223984
H     -4.866227   -1.022830   -1.175208
H     -2.039265    2.826671   -1.078807
H     -1.230370    3.187541   -3.318318
H     -0.971934    1.289726   -4.895996
H     -1.538788   -0.934609   -4.170928
H     -2.385053   -1.340505   -1.840105
H     -4.268309   -1.742390    1.823394
H     -3.562768   -3.882598    2.730646
H     -1.188513   -4.520386    2.500173
H      1.344373   -4.674712    1.991154
H      3.721227   -4.373862    1.290580
H      4.337387   -2.257161    0.089211
H      2.748144    0.768991    2.155209
H      2.080349    2.847443    3.368247
H      1.326518    4.826561    2.146663
H      1.229167    4.762443   -0.267051
H      1.872582    2.748905   -1.513126
H      5.013323    1.615936    0.492856
H      7.477805    1.659673    0.167857
H      8.472839    0.186528   -1.514413
H      7.074046   -1.321428   -2.873004
H      4.017066   -2.855288   -4.106175
H      5.475163   -1.799344   -4.412583
H      5.542906   -3.153077   -3.170171
