40

C      3.722627    1.947495    1.036903
C      3.095363    0.670660    0.588181
C      3.807075   -0.432881    0.759701
C      3.289773   -1.768987    0.352575
C      1.810437   -1.711946    0.461299
C      1.151013   -0.605046   -0.330743
C      1.742861    0.718109   -0.012032
O      1.857762    1.551480   -1.137286
C     -0.312863   -0.713569    0.046641
C     -1.178378    0.253422   -0.592171
O     -0.706133    1.090854   -1.396363
C     -2.610703    0.305838   -0.342206
C     -3.208047   -0.579918    0.528739
C     -4.565522   -0.496440    0.736878
C     -5.361797    0.448593    0.101945
C     -4.777109    1.344375   -0.774871
C     -3.422023    1.254239   -0.976898
O     -5.570782    2.278219   -1.400883
O     -2.449366   -1.550341    1.192873
C      1.358643   -0.874204   -1.774771
O      0.412834   -1.051699   -2.563856
O      2.649721   -0.928604   -2.254862
H      3.457626    2.738390    0.300011
H      3.303422    2.276201    2.004983
H      4.824967    1.877977    1.074239
H      4.793170   -0.396748    1.203709
H      3.630117   -2.492917    1.151741
H      3.700970   -2.152221   -0.577720
H      1.360258   -2.665832    0.094806
H      1.532735   -1.632584    1.542331
H      1.065850    1.269727    0.695755
H      2.659255    1.335937   -1.675988
H     -0.340174   -0.555068    1.161281
H     -0.593422   -1.780121   -0.198435
H     -5.013764   -1.213045    1.434305
H     -6.433614    0.503498    0.275590
H     -2.970319    1.965826   -1.670793
H     -5.776926    3.197015   -1.041784
H     -2.846246   -2.206760    1.828918
H      2.910712   -1.218926   -3.177348
