57

C     -1.239097    2.324211   -0.641071
C     -1.376808    1.224783    0.385801
C     -2.461088    0.225970   -0.031825
C     -1.997989   -0.601498   -1.210937
C     -3.264506   -0.949063   -2.008408
C     -3.652514    0.380110   -2.673018
C     -4.093603    1.320936   -1.591831
C     -3.812199    0.812959   -0.190810
C     -4.790659   -0.379598   -0.029124
C     -4.375273   -1.312692   -1.096623
C     -4.979470   -2.462789   -1.247834
C     -4.121853    1.869573    0.763947
C     -3.234432    2.353611    1.616360
C     -1.881075    1.833248    1.629945
O     -1.172588    1.894791    2.644119
C     -0.138649    0.408853    0.536971
C      1.088462    1.128547    0.954188
C      2.205288    0.136828    1.043150
O      2.008014   -1.074756    0.782599
N      3.519658    0.519450    1.421468
C      4.571642   -0.444411    1.500025
C      4.853317   -1.138143    2.648624
C      5.894529   -2.065065    2.656292
C      6.654262   -2.305968    1.534880
C      6.369813   -1.605014    0.373958
C      5.336242   -0.689270    0.377671
O      5.096718   -0.014621   -0.818344
C      7.167620   -1.851248   -0.821167
O      8.102449   -2.689733   -0.798023
O      6.914288   -1.175196   -1.989204
O      4.107499   -0.912564    3.777742
H     -1.970003    3.135863   -0.388676
H     -1.286355    1.989382   -1.675006
H     -0.241061    2.800323   -0.499637
H     -2.509865   -0.496713    0.837372
H     -1.504664   -1.529419   -0.900778
H     -1.350636   -0.034096   -1.910542
H     -3.058139   -1.728823   -2.740615
H     -2.736501    0.772108   -3.143197
H     -4.439196    0.190271   -3.435081
H     -5.221992    1.366451   -1.662041
H     -3.747229    2.334227   -1.778817
H     -4.626559   -0.793011    0.983016
H     -5.809016    0.032881   -0.171014
H     -4.705832   -3.179829   -2.020621
H     -5.799813   -2.706584   -0.557620
H     -5.124040    2.301666    0.801514
H     -3.499253    3.152257    2.326317
H     -0.008871   -0.189394   -0.382227
H     -0.362254   -0.353426    1.340534
H      1.011395    1.577697    1.960907
H      1.426835    1.905951    0.241065
H      3.691399    1.517749    1.638319
H      6.113287   -2.608096    3.559318
H      7.455250   -3.016586    1.534457
H      7.640371   -0.946384   -2.653798
H      3.364745   -0.256708    3.786151
