20

C     -2.131087    1.019467    0.209556
C     -1.522331   -0.308533   -0.184020
C     -0.078891   -0.129686   -0.581348
C      0.563403    0.178409    0.713203
C     -0.159628   -0.366633    1.677149
C     -1.311060   -1.060524    1.108242
O     -1.963803   -2.010143    1.537200
O      1.742711    0.925413    0.875327
C      2.874101    0.452176    0.177411
O      0.373068   -1.365953   -1.041028
H     -2.660699    1.518870   -0.608721
H     -1.307676    1.629790    0.649455
H     -2.840195    0.825986    1.037791
H     -2.118407   -0.876837   -0.895438
H      0.063881    0.665032   -1.334381
H      0.052362   -0.320802    2.755210
H      2.688742    0.434463   -0.913119
H      3.114374   -0.562685    0.495572
H      3.716123    1.152145    0.406574
H      0.905011   -1.799954   -0.341575
