33

C     -3.510783   -0.040723    0.035742
C     -2.140999    0.463561    0.529781
C     -2.420431    1.871853    1.046520
N     -1.183807    0.544246   -0.533626
C     -0.807251   -0.667939   -1.172447
C      0.049944   -1.592054   -0.320058
C      1.382755   -0.960326   -0.086912
C      1.496804    0.058651    0.836055
C      2.711621    0.690896    1.092378
C      3.818012    0.290484    0.412252
C      3.749420   -0.719146   -0.513160
C      2.526080   -1.326264   -0.743918
O      2.756726    1.695631    2.018199
O     -0.557837   -1.997185    0.839443
Cl     0.684503    0.000000    0.000000
H     -3.653485    0.307681   -1.023874
H     -3.597476   -1.135301    0.098340
H     -4.340764    0.433547    0.630511
H     -1.749348   -0.138023    1.359770
H     -3.367707    2.273217    0.650388
H     -1.600794    2.534543    0.683349
H     -2.427676    1.920349    2.139074
H     -1.540758    1.204332   -1.257019
H     -1.712413   -1.188772   -1.542067
H     -0.182965   -0.484440   -2.087658
H      0.225373   -2.507662   -0.951423
H      0.614319    0.374064    1.377537
H      4.783958    0.772940    0.595197
H      4.645893   -1.014500   -1.036197
H      2.443096   -2.122665   -1.466450
H      3.541961    2.238834    2.308353
H      0.048534   -1.779826    1.606964
H     -0.684503    0.000000    0.000000
