38

C     -1.189972   -3.736040   -0.047910
N     -1.213038   -2.311180    0.226627
C     -2.148462   -1.724052   -0.746000
C     -2.885177   -0.598761   -0.077676
C     -1.987439    0.562612    0.019601
C     -0.640102    0.580258    0.338603
C     -0.036124    1.830220    0.360531
C     -0.736005    2.983192    0.081473
C     -2.075817    2.933699   -0.232710
C     -2.695799    1.718683   -0.261772
O     -0.099404    4.214193    0.112986
C      0.339233   -0.453146    0.673652
C      0.103151   -1.787835    0.027672
C      1.682774    0.005533    0.204877
C      1.900034    0.202467   -1.132775
C      3.136755    0.622665   -1.562675
C      4.170796    0.854090   -0.691332
C      3.929195    0.649475    0.647862
C      2.698044    0.228855    1.100028
Cl     0.404232   -0.639923    2.437434
H     -2.154566   -4.221487    0.210822
H     -0.344726   -4.165037    0.543959
H     -0.941084   -3.866854   -1.119175
H     -1.525907   -1.319600   -1.570278
H     -2.814282   -2.492825   -1.184252
H     -3.262297   -0.901351    0.926804
H     -3.760362   -0.334745   -0.732986
H      1.028307    1.959112    0.601437
H     -2.622452    3.856317   -0.452216
H     -3.747327    1.665805   -0.507470
H     -0.562454    5.076920   -0.081030
H      0.370669   -1.790411   -1.031707
H      0.819792   -2.503976    0.527224
H      1.114512    0.034956   -1.881907
H      3.328458    0.785344   -2.636145
H      5.152866    1.188583   -1.038265
H      4.710887    0.815238    1.399259
H      2.553089    0.079005    2.182998
