47

C      3.891758    1.558185    3.146095
C      2.979606    1.082964    2.082369
C      3.552645    0.434177    0.977325
C      2.719117   -0.009632   -0.012594
C      1.379801    0.197065    0.118587
C      0.757499    0.822275    1.170089
C      1.618780    1.272836    2.177946
O     -0.600015    0.847460    0.958026
C     -0.872489    0.221627   -0.265433
C      0.439091   -0.191725   -0.788816
C      0.881722   -0.852193   -1.940634
C      2.228221   -1.080212   -2.110359
C      3.152116   -0.669788   -1.165668
O     -0.061793   -1.248425   -2.862515
C     -1.821295   -0.884453   -0.158777
C     -2.881209   -0.632046   -0.979023
C     -3.953287   -1.527724   -1.082090
C     -3.926510   -2.682596   -0.336342
C     -2.856418   -2.918505    0.479835
C     -1.791178   -2.060321    0.602304
O     -0.696064   -2.274013    1.420054
C     -0.569854   -3.429260    2.228024
C     -2.678197    0.637391   -1.653784
O     -3.441658    1.197586   -2.483474
N     -1.447864    1.153271   -1.212254
C     -0.815635    2.418234   -1.616218
C     -1.238178    3.545762   -0.713840
O     -0.614751    4.696883   -1.143013
H      3.440579    2.352344    3.770498
H      4.218835    0.674782    3.726901
H      4.821672    1.963479    2.666021
H      4.604127    0.275617    0.881297
H      1.171258    1.767977    3.019349
H      2.617534   -1.585165   -2.981253
H      4.197839   -0.834702   -1.274687
H      0.185338   -1.730305   -3.717307
H     -4.779942   -1.278754   -1.754720
H     -4.772270   -3.352897   -0.440567
H     -2.854447   -3.831524    1.057435
H      0.079091   -3.234822    3.116754
H     -1.541378   -3.790673    2.618132
H     -0.111107   -4.278352    1.654281
H      0.279284    2.293757   -1.499574
H     -1.001437    2.627164   -2.680840
H     -0.884031    3.267852    0.320626
H     -2.324577    3.684442   -0.648246
H     -0.680331    5.384956   -0.436105
