28

C     -1.814801   -0.640792   -0.808843
C     -2.479573    0.711936   -0.666521
C     -3.934373    0.684920   -0.436013
C     -3.057704    0.714761    0.733544
N     -2.543283   -0.445276    1.384708
C     -1.419507   -0.920932    0.642895
C     -0.151883   -0.131602    0.890515
O      0.859839   -0.719171    0.092316
C      2.155352   -0.285211    0.040436
C      2.518019    0.800102    0.814213
N      3.803172    1.192934    0.731940
C      4.678491    0.570056   -0.052372
C      4.330676   -0.516206   -0.831583
C      3.034855   -0.952242   -0.781295
Cl     6.328183    1.173103   -0.077210
H     -2.495238   -1.414263   -1.197809
H     -0.879270   -0.559986   -1.415783
H     -1.916940    1.624769   -0.906410
H     -4.473906   -0.241627   -0.767583
H     -4.486226    1.610824   -0.675512
H     -3.015579    1.664777    1.328938
H     -3.253553   -1.234081    1.416640
H     -1.211681   -1.992692    0.785728
H      0.125410   -0.077436    1.954596
H     -0.293948    0.895578    0.516966
H      1.806192    1.302566    1.448669
H      5.060237   -1.006987   -1.462094
H      2.727039   -1.807821   -1.384351
