36

C     -2.146004    1.812294   -0.768031
C     -2.276694    0.494629   -0.080925
C     -3.650120   -0.046245   -0.051904
C     -3.870547   -1.313574    0.521597
C     -5.130171   -1.826831    0.558800
C     -6.169321   -1.100748    0.035997
C     -5.977069    0.130664   -0.524843
C     -4.692555    0.670078   -0.570467
F     -4.555727    1.901896   -1.138214
F     -2.806092   -1.999040    1.029227
N     -1.333446   -0.485384   -0.568360
C      0.046078   -0.318434   -0.353792
N      0.957809   -1.224552   -0.813357
C      2.273433   -1.033438   -0.574911
C      2.744945    0.053776    0.123361
C      1.805808    0.953098    0.576354
N      0.477969    0.749989    0.329589
C      4.159032    0.291644    0.396886
N      4.675100    1.338633    1.077697
N      5.989282    1.209691    1.120125
C      6.323324    0.081872    0.468237
O      5.194704   -0.435171    0.051950
C      7.712030   -0.465677    0.263998
F      8.237952   -0.705824    1.517704
F      8.431405    0.436992   -0.455295
H     -2.648531    2.630609   -0.241596
H     -2.454427    1.682772   -1.834821
H     -1.050453    2.073760   -0.796035
H     -2.043357    0.715801    1.016853
H     -5.263825   -2.805687    1.007892
H     -7.170500   -1.541820    0.081573
H     -6.784271    0.722467   -0.944170
H     -1.659862   -1.325213   -1.083267
H      2.988707   -1.755456   -0.942223
H      2.058182    1.832495    1.129148
H      7.607212   -1.400068   -0.319704
