31

C     -3.975627    0.046381    0.370145
C     -2.497226    0.037269    0.196414
C     -1.811149    1.215952    0.029274
O     -0.514602    1.182282   -0.115258
C      0.235745    0.099119   -0.117559
C     -0.359832   -1.113190    0.043571
C     -1.749341   -1.118662    0.200277
O     -2.406106   -2.190818    0.362388
C      0.382237   -2.375844   -0.037015
C      1.708176    0.215420   -0.267419
C      2.269836   -0.140127   -1.598477
C      2.519863    0.014571    0.916391
O      1.984224   -0.329646    1.971963
C      3.985496    0.217326    0.887384
C     -2.557141    2.532933    0.020305
H     -4.284482   -0.251008    1.371860
H     -4.392699    1.022357    0.090263
H     -4.366466   -0.718164   -0.378617
H     -0.011183   -3.189946    0.617027
H      1.433780   -2.283408    0.192987
H      0.253899   -2.826586   -1.105541
H      1.812041    1.432423   -0.345937
H      3.201626   -0.781984   -1.408827
H      1.575843   -0.708393   -2.261028
H      2.652690    0.679873   -2.230678
H      4.476946   -0.705311    1.148555
H      4.336671    0.553358   -0.111737
H      4.287204    1.064987    1.556149
H     -3.080140    2.578121   -0.944150
H     -1.822297    3.333340    0.071776
H     -3.287983    2.507372    0.875518
