28

C     -2.351143   -1.358162    0.041445
C     -3.605174   -0.554384    0.275189
C     -3.991762    0.489890   -0.720576
C     -3.160181    0.843492    0.466717
N     -1.729009    0.838766    0.384465
C     -1.351625   -0.332155   -0.379704
C      0.079325   -0.728787    0.004395
O      0.901046    0.347028   -0.299164
C      2.258618    0.421044   -0.115833
C      2.920671    1.570145   -0.473913
N      4.275407    1.669342   -0.301154
C      4.999995    0.666772    0.215663
C      4.377356   -0.503467    0.588429
C      2.998633   -0.607255    0.413750
Cl     6.751365    0.830665    0.424666
H     -1.985479   -1.820166    0.987837
H     -2.514842   -2.130639   -0.748641
H     -4.357706   -1.003903    0.944753
H     -5.039100    0.856003   -0.684321
H     -3.489033    0.553380   -1.689080
H     -3.590191    1.473793    1.261624
H     -1.404148    1.670937   -0.156831
H     -1.380130   -0.149880   -1.477135
H      0.110682   -1.071470    1.047541
H      0.347346   -1.588067   -0.672106
H      2.426949    2.435952   -0.899509
H      4.980633   -1.294728    1.001246
H      2.521496   -1.524146    0.707487
