50

C     -4.925392   -0.834486    2.321160
S     -4.488140   -0.434536    0.639552
O     -3.837255   -1.635535    0.043149
O     -5.810212   -0.277128   -0.102073
N     -3.556941    0.978578    0.539259
C     -2.317664    0.840032    1.246772
C     -1.102646    0.614487    0.430950
C     -1.062956   -0.587455   -0.406421
C     -1.403449   -0.536032   -1.751734
C     -1.349768   -1.645394   -2.543560
C     -0.953210   -2.856854   -2.026502
C     -0.606823   -2.945661   -0.691162
C     -0.665793   -1.821484    0.092531
Cl    -0.895775   -4.270262   -3.080168
N      0.090408    0.586276    1.279393
C      1.367889    0.382758    0.709571
N      2.441082    0.362172    1.513697
C      3.653507    0.171712    0.996004
C      3.856769   -0.009270   -0.362091
C      2.768074    0.012332   -1.171739
N      1.560918    0.207177   -0.611835
C      5.216265   -0.214012   -0.866933
N      5.559410   -0.401106   -2.149994
N      6.887312   -0.547998   -2.189989
C      7.355464   -0.451343   -0.937292
O      6.312986   -0.250335   -0.174586
C      8.775076   -0.551319   -0.493108
F      9.556240    0.354344   -1.159885
F      9.166966   -1.864883   -0.750773
C     -4.235894    2.165587    0.947990
C     -4.948128    2.909456   -0.133445
F     -5.924341    2.213062   -0.778161
F     -5.518106    4.038744    0.462646
F     -4.064971    3.414931   -1.089341
H     -5.172912   -1.909791    2.343732
H     -5.855170   -0.297334    2.619412
H     -4.101055   -0.661561    3.025051
H     -2.156437    1.745020    1.913790
H     -2.373317    0.001903    2.009430
H     -0.942569    1.491124   -0.249019
H     -1.716536    0.443684   -2.138736
H     -1.624737   -1.572188   -3.601078
H     -0.293216   -3.919364   -0.296506
H     -0.395722   -1.864019    1.158025
H     -0.004102    0.714819    2.289528
H      4.529153    0.153818    1.642772
H      2.882577   -0.126143   -2.248381
H      8.826001   -0.428211    0.605876
H     -4.986282    1.979119    1.761425
H     -3.516580    2.902073    1.412797
