51

C     -3.399474   -2.074559   -0.697831
C     -2.890848   -1.640271    0.658502
C     -4.089702   -1.889344    1.611406
C     -1.750933   -2.446413    1.085075
C     -0.884952   -3.001589    0.272337
C     -2.611439   -0.173885    0.722969
C     -1.622303    0.489403    0.042962
C     -1.743413    1.835646    0.403208
C     -1.068508    2.966836    0.050822
C     -1.412149    4.203181    0.554940
C     -2.453007    4.343511    1.435899
C     -3.133575    3.199180    1.789674
C     -2.792830    1.960896    1.286764
N     -3.278229    0.717262    1.442469
C     -0.690506   -0.078198   -0.891219
C      0.614715    0.009704   -0.757328
C      1.529934   -0.583995   -1.750146
O      1.045295   -1.153303   -2.763197
N      2.931312   -0.507349   -1.554013
C      4.018306   -0.557960   -2.470456
C      5.271001   -0.585459   -1.631753
C      4.850882   -0.006579   -0.304109
C      3.408781   -0.354712   -0.209436
C      2.608180    0.679955    0.489535
O      3.175576    1.575893    1.180590
N      1.194134    0.638977    0.363489
O      3.281706   -1.587707    0.443869
O      5.104934    1.360426   -0.235627
H     -3.318554   -1.159802   -1.360150
H     -2.863893   -2.912067   -1.146657
H     -4.504000   -2.286584   -0.696252
H     -4.914703   -1.285329    1.210137
H     -3.826170   -1.529662    2.616187
H     -4.299840   -2.959079    1.653127
H     -1.618290   -2.592796    2.170442
H     -0.908053   -2.931536   -0.803797
H     -0.051583   -3.595016    0.668145
H     -0.244258    2.843938   -0.649017
H     -0.834754    5.056910    0.232985
H     -2.743582    5.301823    1.847347
H     -3.956664    3.313026    2.486785
H     -4.103633    0.502265    2.076910
H     -1.058448   -0.607919   -1.758139
H      4.087851    0.358880   -3.115291
H      3.958780   -1.426489   -3.148368
H      5.630053   -1.614732   -1.480266
H      6.099293   -0.007793   -2.105925
H      5.437021   -0.494453    0.516360
H      0.598693    1.059128    1.117953
H      3.719672   -2.268346   -0.105343
H      4.502174    1.896083   -0.796569
