15

C     -1.740752    1.267231   -0.182936
O     -1.076600    0.852513    0.959397
P     -0.162604   -0.539125    0.722919
O      0.757045   -0.682554    1.933987
N     -1.170323   -1.983886    0.701294
S      0.995145   -0.418890   -1.049931
C      2.639329    0.231036   -0.693747
H     -1.345513    2.249905   -0.516365
H     -2.822955    1.425438    0.011003
H     -1.688971    0.519933   -1.008609
H     -1.390652   -2.189485   -0.294886
H     -2.020682   -1.795409    1.281467
H      2.678221    0.765470    0.270839
H      2.978824    0.901625   -1.499122
H      3.370488   -0.603802   -0.635310
