30

C     -2.779160    0.695735    0.427051
C     -1.821136   -0.062930   -0.467302
C     -2.399606   -1.409550   -0.733299
C     -0.425788   -0.117646    0.106022
C      0.445774   -0.885870   -0.846890
C      1.886451   -0.943019   -0.388040
C      2.350967    0.513388   -0.269468
C      1.534025    1.110399    0.867704
C      0.127013    1.272123    0.329061
O     -0.606733    1.949929    1.284506
O      3.705482    0.607407   -0.063085
O      2.657948   -1.549476   -1.353076
H     -2.714267    1.795936    0.284739
H     -2.621614    0.408955    1.480094
H     -3.808940    0.383876    0.152770
H     -1.773882    0.494524   -1.426156
H     -2.110202   -1.835044   -1.713424
H     -2.149547   -2.110850    0.092201
H     -3.506774   -1.310536   -0.744984
H     -0.467844   -0.645478    1.064127
H      0.070719   -1.921383   -0.900077
H      0.441858   -0.364519   -1.820800
H      1.992779   -1.398899    0.619527
H      2.077711    1.029798   -1.236115
H      1.960459    2.037351    1.248495
H      1.469604    0.323157    1.666004
H      0.149385    1.808304   -0.659558
H     -0.487225    2.917815    1.118411
H      4.111134   -0.284462   -0.122973
H      2.691407   -2.509034   -1.183940
