54

C     -3.692427    0.919476    1.804360
C     -3.291239    1.430016    0.455496
C     -2.088468    2.285562    0.509578
C     -2.434839    3.608510    0.516479
C     -1.473861    4.589232    0.560475
C     -0.120760    4.236565    0.599375
C      0.250888    2.887771    0.594047
C     -0.713989    1.950340    0.550135
C     -0.255421    0.568755    0.537006
C      1.093267    0.164183    0.836037
C      1.923681   -0.456400   -0.255997
C      1.130206   -1.187017   -1.315786
C      0.119204   -0.217930   -1.831885
N     -0.776831    0.046380   -0.749881
C     -2.112509   -0.228439   -1.103689
C     -3.240037    0.394380   -0.587276
C     -4.493951    0.028919   -1.071919
C     -4.578282   -0.934274   -2.043496
C     -3.443980   -1.559679   -2.560539
C     -2.204012   -1.206165   -2.087968
C     -5.874892   -1.283544   -2.538521
N     -6.950305   -1.559962   -2.931031
N      3.033536   -1.231415    0.271543
C      4.359483   -0.980706    0.006245
O      4.613405   -0.000544   -0.766389
C      5.493828   -1.724975    0.521802
C      5.634084   -2.777649    1.374228
N      6.846970   -3.192077    1.633733
N      7.863998   -2.613773    1.094150
S      7.178210   -1.409227    0.151775
C      4.445467   -3.478292    2.013956
H     -3.129776    0.034968    2.154029
H     -4.784578    0.731597    1.778010
H     -3.575733    1.756570    2.527384
H     -4.136676    2.101142    0.145611
H     -3.467104    3.880776    0.488724
H     -1.696240    5.651960    0.565786
H      0.682630    4.952417    0.629611
H      1.280223    2.621268    0.615780
H     -0.893691    0.050563    1.340098
H      1.130618   -0.670431    1.633596
H      1.777441    0.902130    1.348040
H      2.401175    0.396815   -0.817497
H      1.872471   -1.474362   -2.096558
H      0.591701   -2.073023   -0.918924
H      0.705103    0.787438   -1.820952
H     -0.160686   -0.169993   -2.839614
H     -5.317942    0.559086   -0.620192
H     -3.577181   -2.304290   -3.320768
H     -1.271246   -1.634567   -2.407068
H      2.743427   -2.017316    0.878470
H      3.898229   -3.986043    1.202708
H      3.882358   -2.834988    2.678888
H      4.805055   -4.329734    2.668797
