17

C     -2.283786   -0.075497   -0.044078
C     -0.810787   -0.155800   -0.358522
C     -0.055206   -0.953269    0.624498
O     -0.630522   -1.503115    1.529249
C      1.408301   -1.083013    0.506895
C      2.094745    0.101783    0.027722
O      1.957171   -0.997608   -0.833164
C      1.250241    1.287891   -0.205617
O      1.758667    2.439369   -0.216629
C     -0.180092    1.180565   -0.428968
O     -0.910590    2.168342   -0.679671
H     -2.745128   -1.045461   -0.333575
H     -2.493474    0.125116    1.016430
H     -2.715045    0.684600   -0.734217
H     -0.724262   -0.636859   -1.354589
H      1.941744   -1.816617    1.153192
H      3.138024    0.279572    0.331043
