43

C     -3.791059    0.689349    1.682942
C     -5.000866    0.326740    2.190045
C     -5.406615   -0.976133    2.176751
C     -4.527507   -1.899295    1.624062
C     -3.308687   -1.535813    1.112849
C     -2.916588   -0.236712    1.131857
C     -1.626539    0.265808    0.634285
C     -1.630695    0.894823   -0.703169
O     -1.631133    0.154489   -1.813111
C     -2.611382   -0.659400   -2.204533
C     -3.953146   -0.000529   -2.512566
F     -3.768200    0.913766   -3.541699
F     -4.872918   -0.932624   -2.905485
F     -4.449774    0.680221   -1.431637
N     -0.536996   -0.628520    0.867023
C      0.794437   -0.268262    0.584470
N      1.195574    0.905134    0.092721
C      2.443886    1.254860   -0.176822
C      3.447129    0.368129    0.052452
C      3.095296   -0.870284    0.563653
N      1.816338   -1.160122    0.813671
C      4.837334    0.714742   -0.231299
N      5.238647    1.897374   -0.726390
N      6.552333    1.826617   -0.842499
C      6.970986    0.624205   -0.429189
O      5.907189   -0.040706   -0.059522
C      8.393351    0.194733   -0.420230
F      8.873684    0.160605   -1.725368
F      9.161056    1.073071    0.311212
F     -6.609867   -1.345344    2.679783
H     -3.494318    1.751601    1.709711
H     -5.638448    1.108931    2.608380
H     -4.874473   -2.927256    1.626101
H     -2.639054   -2.280140    0.685472
H     -1.384529    1.144524    1.355670
H     -2.507078    1.635203   -0.679332
H     -0.760686    1.618103   -0.773677
H     -2.286251   -1.073436   -3.231962
H     -2.782991   -1.596367   -1.635849
H     -0.689198   -1.608836    1.265796
H      2.623794    2.246282   -0.574980
H      3.911876   -1.563164    0.739251
H      8.436090   -0.846368   -0.027786
