42

C      2.358271   -0.494678    1.466436
N      1.140930    0.065921    0.946263
C      1.079064    0.851313   -0.224214
C      2.114077    1.000461   -0.994551
C      3.408330    0.445265   -0.844004
C      3.633387   -0.877842   -0.967845
C      4.890127   -1.432350   -0.873771
C      5.960735   -0.585991   -0.641966
C      5.741363    0.775735   -0.512540
C      4.465606    1.269164   -0.616207
C     -0.207443    1.457208   -0.650226
O     -0.245006    2.159277   -1.703023
N     -1.379917    1.256775    0.103726
C     -1.433171    0.238664    1.109441
C     -0.104793   -0.097026    1.656998
O     -0.009654   -0.569723    2.846343
C     -2.138746   -0.985178    0.576746
C     -3.511831   -0.631616    0.172567
C     -4.482413   -0.746243    1.160159
C     -5.757703   -0.359562    0.881143
C     -6.088637    0.134432   -0.345861
C     -5.132974    0.248560   -1.325005
C     -3.804569   -0.139872   -1.081960
O     -2.891388   -0.013409   -2.105476
H      2.479302   -1.575346    1.363789
H      3.225808    0.150133    1.533855
H      2.120520   -0.492137    2.616948
H      1.949011    1.660902   -1.896112
H      2.835463   -1.619695   -1.153733
H      5.067696   -2.508179   -0.977569
H      6.980956   -0.938261   -0.555293
H      6.572209    1.465301   -0.328503
H      4.344549    2.344447   -0.507846
H     -2.224769    1.882283   -0.092476
H     -2.020601    0.609164    2.013523
H     -2.184020   -1.786397    1.342344
H     -1.554139   -1.364365   -0.292247
H     -4.245977   -1.139717    2.154307
H     -6.552890   -0.427122    1.613483
H     -7.088670    0.441003   -0.572021
H     -5.351492    0.630080   -2.300033
H     -1.956600   -0.330269   -1.995588
