44

C     -4.352173    2.921821   -0.431186
C     -3.959665    1.473428   -0.382062
C     -4.920550    0.484361   -0.460866
C     -4.557716   -0.837997   -0.415833
C     -3.248220   -1.192327   -0.293148
C     -2.256049   -0.244728   -0.210734
C     -2.660646    1.109787   -0.259974
O     -0.969641   -0.475331   -0.088855
C      0.041413   -1.282786    0.114290
C     -0.069701   -2.636114    0.383195
C      1.063542   -3.398026    0.580820
C      2.291054   -2.820535    0.509767
C      2.480474   -1.480074    0.244324
C      1.336670   -0.703118    0.047571
C      1.394744    0.731769   -0.105759
C      2.802043    1.152158   -0.333828
C      2.710663    2.475860   -0.660299
C      1.242678    2.774781   -0.852964
O      0.673273    1.442967   -0.989129
C      3.912621    3.126765   -0.790047
C      5.120792    2.440832   -0.595424
C      5.105087    1.087216   -0.270292
C      3.901648    0.389739   -0.130557
O      3.794017   -0.962324    0.169542
C      0.909463   -4.844300    0.868971
O     -5.517925   -1.855956   -0.494273
H     -3.829009    3.433067    0.399955
H     -5.440140    3.026861   -0.347443
H     -4.022128    3.336222   -1.419898
H     -5.961302    0.762845   -0.558308
H     -2.985602   -2.269038   -0.268761
H     -1.882057    1.880135   -0.192676
H     -1.048075   -3.092658    0.444974
H      3.184652   -3.425844    0.666622
H      1.091186    1.149621    0.946491
H      0.788992    3.305535   -0.033055
H      1.094564    3.225356   -1.844412
H      3.897049    4.176678   -1.045305
H      6.020655    3.003208   -0.708596
H      6.028757    0.552807   -0.120399
H      0.985526   -5.022471    1.949195
H     -0.080316   -5.235714    0.541252
H      1.696318   -5.431786    0.351280
H     -5.806969   -2.252689   -1.378100
