45

C      7.005042   -0.710403    0.505762
C      5.766615   -0.172686   -0.132633
C      4.592501   -0.767172   -0.044891
C      3.639511    0.063140   -0.797535
O      4.332280    1.165212   -1.320788
C      5.654175    1.048647   -0.926397
O      6.624324    1.807995   -1.167158
O      2.613896    0.512793    0.071035
C      1.829119   -0.447063    0.711645
C      0.640525   -0.783094    0.273897
C     -0.024297   -0.219787   -0.917314
C     -0.340977    1.219582   -0.659204
C     -1.713736    1.171704   -0.070969
C     -2.235640   -0.012134   -0.273965
C     -1.334542   -0.940520   -1.009761
O     -1.172465   -2.077773   -0.171629
C     -0.262561   -1.758555    0.848492
O     -0.239378   -2.230976    2.032435
C     -3.636267   -0.214698    0.257808
C     -3.643244    0.263952    1.691171
C     -3.362942    1.753393    1.765350
C     -2.502912    2.191861    0.647339
O     -2.447551    3.389926    0.322995
C     -4.048667   -1.647181    0.187271
C     -4.631785    0.620317   -0.507258
H      6.875039   -0.758758    1.612824
H      7.847288   -0.008860    0.322149
H      7.219684   -1.686212    0.057013
H      4.394808   -1.682511    0.481488
H      3.226656   -0.502056   -1.662853
H      2.228663   -0.931753    1.611645
H      0.563996   -0.363635   -1.845244
H     -0.454051    1.708308   -1.669843
H      0.385521    1.740034   -0.042963
H     -1.666485   -1.178069   -2.014754
H     -2.882972   -0.322808    2.239110
H     -4.647758    0.074937    2.120380
H     -4.332993    2.294354    1.801982
H     -2.818458    1.965919    2.708438
H     -3.464360   -2.148564   -0.625481
H     -5.122936   -1.764733   -0.133559
H     -3.835107   -2.224743    1.113054
H     -5.151632    1.360800    0.146609
H     -4.072410    1.203517   -1.272525
H     -5.393518   -0.001647   -1.025668
