65

C      3.699271    2.963486    1.125359
C      3.253557    1.885613    0.159781
C      2.239125    2.406196   -0.828764
C      1.368602    1.205088   -1.222243
C      1.660159    0.198526   -0.201512
C      2.472575    0.827373    0.895812
C      3.418333   -0.227723    1.420022
C      3.110127   -1.487714    0.640401
C      2.498704   -0.965436   -0.645343
C      1.468548   -1.967533   -1.072229
C      0.325183   -1.685211   -0.451905
C      0.494605   -0.512749    0.409736
C     -0.726830    0.334530    0.605339
C     -1.773887   -0.182648   -0.321944
C     -3.038854    0.551384   -0.435758
C     -4.084464   -0.512395   -0.170413
C     -3.408421   -1.813881   -0.636831
C     -2.045967   -1.632872   -0.023801
C     -0.957039   -2.458281   -0.612230
C     -2.147531   -1.978598    1.428881
C     -3.236538    1.799215    0.319562
C     -4.652280    2.301386   -0.030662
C     -3.163873    1.782648    1.788682
C      1.777631   -3.060259   -2.037363
C      3.545589   -0.701570   -1.624442
H      4.739410    3.296061    0.928959
H      3.062454    3.867017    1.059107
H      3.673540    2.579408    2.164912
H      4.173018    1.498336   -0.320092
H      1.636959    3.174723   -0.301483
H      2.715100    2.853202   -1.723198
H      0.331937    1.601698   -1.256931
H      1.589728    0.898954   -2.272180
H      1.864652    1.283250    1.693933
H      4.475620    0.060080    1.232203
H      3.276906   -0.402457    2.496490
H      4.065573   -2.009665    0.430328
H      2.460239   -2.187228    1.176360
H      0.877300   -0.909090    1.399248
H     -0.558749    1.409255    0.557904
H     -1.094839    0.135284    1.655628
H     -1.265387   -0.192713   -1.338088
H     -3.231251    0.832239   -1.521031
H     -4.416269   -0.566998    0.861837
H     -4.987102   -0.387655   -0.805888
H     -3.951906   -2.691397   -0.256204
H     -3.382460   -1.773011   -1.746227
H     -0.851889   -3.412105   -0.030675
H     -1.119970   -2.698833   -1.671837
H     -2.984302   -1.508026    1.963794
H     -2.377164   -3.083853    1.451344
H     -1.239085   -1.860210    2.010358
H     -2.558233    2.577093   -0.102685
H     -4.921344    3.156295    0.615718
H     -4.645466    2.529113   -1.096858
H     -5.320414    1.434012    0.152784
H     -3.912588    2.482192    2.273627
H     -2.177780    2.218143    2.128217
H     -3.291379    0.837931    2.298496
H      0.976036   -3.810737   -2.099364
H      2.697118   -3.606100   -1.728773
H      1.916814   -2.611894   -3.034504
H      3.587876   -1.562584   -2.355061
H      4.569866   -0.718604   -1.147546
H      3.501109    0.200297   -2.220761
