41

C     -3.693733    1.884349    0.094135
C     -2.477609    1.164394   -0.348898
C     -2.495853   -0.318562   -0.068684
C     -1.037334   -0.635060   -0.128476
C     -0.354645    0.562185    0.118364
O     -1.295774    1.563748    0.320282
C      1.035876    0.523760    0.114745
C      1.736931   -0.624787   -0.117936
C      1.063445   -1.797039   -0.359595
C      1.803999   -2.933403   -0.589677
O      3.117507   -2.903746   -0.579676
C      3.806055   -1.821741   -0.356425
C      3.113080   -0.643835   -0.117709
C      3.811704    0.520080    0.122289
O      5.061331    0.519087    0.125818
C      3.144230    1.721219    0.365816
C      1.767326    1.695803    0.356521
C      0.930709    2.897897    0.600092
O      3.876349    2.856614    0.600054
O      5.210891   -1.812889   -0.350405
O      1.104696   -4.109547   -0.832211
C     -0.319189   -1.780888   -0.360506
O     -0.924692   -2.866116   -0.584184
C     -3.287577   -1.045810   -1.107277
C     -2.946110   -0.625105    1.342510
H     -4.282547    1.409069    0.876166
H     -4.376863    1.985930   -0.798872
H     -3.416588    2.938641    0.347925
H     -2.276723    1.281851   -1.434041
H      1.568064    3.759919    0.787404
H      0.311858    2.760424    1.512226
H      0.304765    3.148320   -0.288390
H      3.500017    3.740883    0.779496
H      5.753605   -2.471789   -0.881404
H      0.681312   -4.676573   -0.119325
H     -2.600519   -1.365743   -1.921983
H     -4.072404   -0.366049   -1.508956
H     -3.814641   -1.931168   -0.677010
H     -2.343936    0.000843    2.029126
H     -2.662336   -1.680940    1.546627
H     -4.024675   -0.524228    1.492043
