69

C      6.731215   -3.019389    2.383583
C      5.514545   -2.390095    1.799604
C      4.297710   -3.058312    1.831820
C      3.152545   -2.502309    1.299379
C      3.260335   -1.250225    0.729991
C      4.425335   -0.533884    0.662834
C      5.558602   -1.141314    1.216878
O      4.488359    0.648810    0.116141
C      3.440800    1.241655   -0.411516
C      3.565681    2.487847   -0.968915
C      2.458968    3.077548   -1.503973
C      1.220735    2.475653   -1.510111
C      1.084643    1.221582   -0.954576
C      2.214814    0.574270   -0.383981
C      2.113549   -0.665653    0.182775
O      1.039977   -1.287932    0.230877
C     -0.191661    0.496008   -0.948751
C     -1.399419    1.201239   -1.518298
C     -2.320737    1.662345   -0.450173
C     -2.864446    0.752657    0.457537
C     -3.692495    1.406238    1.403519
C     -3.946864    2.725364    1.450423
C     -3.373078    3.553716    0.517334
C     -2.560145    3.013589   -0.429927
O     -3.619719    4.913418    0.542318
C     -4.483839    5.445409    1.557313
O     -4.338312    0.655562    2.419162
O     -2.639284   -0.541006    0.437555
C     -2.635948   -1.751306   -0.148435
C     -3.460135   -2.709649    0.515471
C     -3.634922   -4.004166    0.129883
C     -2.987381   -4.450693   -0.967740
C     -2.160704   -3.556929   -1.661814
C     -1.977738   -2.222959   -1.270536
C     -1.066714   -1.500248   -2.155506
O     -1.192309   -1.665235   -3.447074
O     -0.061637   -0.645417   -1.797865
O     -1.533181   -4.099413   -2.766350
C     -4.531808   -4.946414    0.897733
O     -1.253272    1.995146   -2.596050
O      2.550235    4.342348   -2.076731
C      3.789942    5.028640   -2.110026
O      1.925747   -3.131275    1.310529
H      6.763035   -4.112775    2.212439
H      7.648236   -2.585812    1.908275
H      6.801152   -2.800288    3.481527
H      4.247157   -4.020548    2.277123
H      6.497271   -0.611564    1.185329
H      4.554516    2.949653   -0.956252
H      0.360331    2.964124   -1.914320
H     -0.516879    0.228591    0.088049
H     -2.084465    0.347014   -1.993042
H     -4.612712    3.141445    2.233551
H     -2.120701    3.701821   -1.154561
H     -4.186921    5.105918    2.567896
H     -5.518399    5.118268    1.335106
H     -4.382141    6.541535    1.514751
H     -4.203275   -0.340555    2.469083
H     -4.019263   -2.452362    1.427476
H     -3.115948   -5.463603   -1.286168
H     -0.905006   -3.753740   -3.406926
H     -5.557057   -4.910322    0.473053
H     -4.116134   -5.970961    0.876199
H     -4.568523   -4.528573    1.924706
H     -2.117705    2.184656   -2.991486
H      3.711912    5.911313   -2.744221
H      4.567739    4.334763   -2.540182
H      4.076614    5.232244   -1.068986
H      1.889181   -4.055462    1.740797
