49

C      5.842462    2.155858    1.642967
O      5.521862    2.069743    0.294143
C      4.505679    1.362120   -0.298748
C      4.420604    1.468785   -1.692696
C      3.421391    0.777775   -2.319307
C      2.501908   -0.012873   -1.649211
C      2.607538   -0.100326   -0.285297
C      3.608230    0.586417    0.390425
C      1.711623   -0.903530    0.539077
C      0.509016   -1.481397   -0.075925
C      0.195267   -2.889149    0.452001
O     -1.182852   -2.930253    0.313132
C     -1.690234   -1.717084    0.746509
C     -0.608706   -0.700010    0.579773
C      0.009529   -0.386196    1.918270
O      1.319014   -0.093318    1.618911
C     -2.855226   -1.279003   -0.054677
C     -3.296938    0.033650    0.088707
C     -4.364521    0.517762   -0.622197
C     -5.030956   -0.331340   -1.517953
C     -4.599212   -1.627222   -1.662165
C     -3.523686   -2.093975   -0.938286
O     -6.112013    0.147104   -2.242214
O     -4.827512    1.813008   -0.504610
C     -4.286679    2.786357    0.332156
O     -2.077404   -1.878742    2.081453
O      5.340697    2.264190   -2.403358
H      5.000622    1.837065    2.277758
H      6.175634    3.204355    1.876350
H      6.756444    1.530155    1.877957
H      3.329231    0.843608   -3.409112
H      1.728995   -0.536669   -2.234640
H      3.702891    0.523269    1.477817
H      2.349916   -1.699791    1.027440
H      0.428753   -1.546897   -1.149853
H      0.635593   -3.651640   -0.233000
H      0.565417   -2.999172    1.473207
H     -0.891375    0.186076    0.009291
H     -0.464354    0.471593    2.425143
H     -0.021503   -1.332964    2.522099
H     -2.794876    0.715612    0.780254
H     -5.127060   -2.264152   -2.359256
H     -3.187522   -3.135558   -1.064811
H     -6.401331    1.111759   -2.110637
H     -4.372025    3.780774   -0.179904
H     -4.906001    2.785231    1.267307
H     -3.229339    2.665053    0.600610
H     -2.400448   -2.799024    2.279539
H      6.063455    2.752966   -1.884439
