53

C     -3.108413    1.800224   -2.058880
C     -3.585071    2.543834   -0.862502
S     -4.344619    1.584879    0.388096
O     -5.684938    1.042260   -0.116575
O     -4.763407    2.581985    1.478051
N     -3.430461    0.402602    1.140736
C     -2.891458   -0.650742    0.409308
C     -1.408903   -0.786880    0.477826
C     -0.894561   -1.906326   -0.357791
C     -0.621074   -3.164749    0.129074
C     -0.145762   -4.199606   -0.642284
C      0.078384   -3.992336   -1.982057
C     -0.181423   -2.751041   -2.508896
C     -0.655476   -1.728808   -1.725722
F      0.549094   -5.008685   -2.757724
N     -0.738450    0.450390    0.230517
C      0.706296    0.434963    0.158464
N      1.394831   -0.724713    0.322170
C      2.748446   -0.755517    0.257342
C      3.456573    0.402220    0.021616
C      2.739567    1.567086   -0.141501
N      1.412187    1.544500   -0.068853
C      4.910514    0.359773   -0.046471
N      5.672880   -0.732271    0.101653
N      6.945079   -0.396426   -0.022021
C      6.985104    0.935951   -0.253043
O      5.753887    1.341759   -0.258937
C      8.207744    1.779583   -0.461399
F      8.113885    2.267410   -1.763828
F      8.218140    2.861923    0.380050
C     -2.994644    0.658511    2.460090
C     -3.942237    0.197187    3.537989
F     -5.175654    0.804886    3.438897
F     -4.131884   -1.156684    3.553970
F     -3.401531    0.555562    4.757452
H     -3.121092    2.546164   -2.916757
H     -3.844284    1.029210   -2.399636
H     -2.076507    1.443228   -2.033036
H     -2.715504    3.117355   -0.433491
H     -4.337120    3.315922   -1.196180
H     -3.119654   -0.457212   -0.685823
H     -3.400550   -1.646984    0.565226
H     -1.091713   -1.096475    1.533041
H     -0.794663   -3.344173    1.193206
H      0.055294   -5.181836   -0.204256
H     -0.001309   -2.598002   -3.566487
H     -0.869645   -0.739571   -2.112278
H     -1.178478    1.381819    0.109025
H      3.252949   -1.717332    0.396562
H      3.245352    2.504060   -0.328788
H      9.114096    1.160382   -0.401983
H     -2.951853    1.786539    2.573347
H     -1.957964    0.334206    2.693489
