53

C     -5.122159   -0.019295   -0.557563
C     -3.746921   -0.064192   -1.154716
C     -2.752838   -0.006807   -0.024630
C     -2.903954   -1.155494    0.933891
C     -1.511205   -1.402114    1.527874
C     -0.908280   -0.045095    1.859894
C     -0.476578    0.577283    0.547903
C     -1.306132   -0.017421   -0.550058
N     -0.993174   -1.397646   -0.814632
C     -0.681091   -2.061935    0.462515
C      0.002143   -1.644765   -1.781769
C      0.957943   -0.547196   -2.070623
C      1.613558   -0.145409   -0.815123
C      0.988469    0.339629    0.313504
N      1.950247    0.572068    1.200294
C      3.160610    0.262014    0.701153
C      2.982095   -0.207147   -0.605331
C      4.062902   -0.599957   -1.361817
C      5.350620   -0.550970   -0.877382
C      5.532440   -0.085844    0.419198
C      4.453351    0.306530    1.174986
O      6.467786   -0.936565   -1.604563
C     -0.653058    2.043595    0.562462
O     -1.405286    2.575492   -0.285518
O     -0.007615    2.838487    1.489202
C     -0.168818    4.257649    1.515198
H     -5.813204    0.600297   -1.161889
H     -5.516979   -1.054423   -0.489190
H     -5.086110    0.440232    0.454684
H     -3.626932   -0.947155   -1.790662
H     -3.632228    0.823976   -1.808070
H     -2.870790    0.952437    0.513598
H     -3.556918   -0.886237    1.780589
H     -3.252812   -2.079453    0.439711
H     -1.542150   -2.002091    2.437375
H      0.012354   -0.247389    2.445209
H     -1.636052    0.588273    2.392240
H     -1.326215    0.566031   -1.475101
H     -1.879058   -1.855143   -1.139517
H      0.394043   -2.030512    0.636109
H     -0.987064   -3.135855    0.419679
H     -0.431450   -1.979575   -2.770015
H      0.609562   -2.536310   -1.449223
H      1.730651   -0.957190   -2.778477
H      0.510814    0.314905   -2.604510
H      1.760952    0.951960    2.166636
H      3.912676   -0.958574   -2.364242
H      6.509469   -0.027075    0.844646
H      4.635889    0.661682    2.176992
H      6.788420   -1.912624   -1.557084
H     -0.814520    4.572234    0.651753
H     -0.614414    4.564625    2.481970
H      0.837012    4.688059    1.342438
