24

C     -1.823865   -1.464375   -0.211258
C     -1.091934   -0.241441    0.223471
C      0.202677   -0.054043   -0.465058
C      0.463382   -0.343246   -1.741525
C      1.124844    0.499564    0.506529
C      0.639322    0.343099    1.747256
C     -0.659740   -0.338804    1.650026
O     -1.237508   -0.874447    2.605916
O      2.333147    1.098499    0.138525
C      3.527867    0.380669    0.044684
C     -1.893927    1.023684    0.054251
O     -2.237558    1.211169   -1.277910
H     -2.668037   -1.639162    0.474853
H     -1.138758   -2.323027   -0.162993
H     -2.143871   -1.326194   -1.261194
H      1.428425   -0.180519   -2.174577
H     -0.317269   -0.754434   -2.364157
H      1.149153    0.677383    2.650436
H      3.764969   -0.064265    1.031860
H      3.399320   -0.419925   -0.728016
H      4.315533    1.092713   -0.304058
H     -1.203867    1.869068    0.340883
H     -2.816570    1.041381    0.660668
H     -3.115736    0.786651   -1.438613
