26

C      1.795472    1.063563    0.630586
N      1.445280    0.187989   -0.416679
C      2.296800   -0.933705   -0.619505
C      0.082241   -0.059466   -0.658356
C     -0.739819    1.100112   -1.064136
C     -2.151064    0.797775   -0.590649
C     -2.073409   -0.641324   -0.055950
C     -0.669837   -0.567459    0.567441
O     -0.219861   -1.774452    1.015298
Cl     0.691399    0.000000    0.000000
H      2.531884    0.554014    1.288197
H      0.967178    1.380708    1.283503
H      2.281527    1.962201    0.227861
H      1.803694   -1.624170   -1.334415
H      2.488605   -1.470612    0.331639
H      3.239029   -0.591991   -1.094775
H     -0.016719   -0.854722   -1.433698
H     -0.811421    1.236993   -2.180031
H     -0.450498    2.062010   -0.619847
H     -2.403092    1.403170    0.329772
H     -2.904204    0.908259   -1.372039
H     -2.842554   -0.867834    0.674575
H     -2.014021   -1.323701   -0.912770
H     -0.718468    0.224731    1.333524
H     -0.916743   -2.172089    1.599183
H     -0.691399    0.000000    0.000000
