43

C     -4.482956   -1.005829    1.215962
O     -3.991895   -1.091388   -0.064603
N     -2.864353   -0.386933   -0.272116
C     -2.881258    0.647467   -1.281626
C     -1.824037    1.640848   -0.965980
O     -2.067933    2.894994   -1.037204
N     -0.551456    1.155717   -0.588489
C     -0.327067   -0.182363   -0.047501
C     -1.681826   -0.622778    0.455843
O     -1.774707   -1.217173    1.554662
C      0.594090   -0.087773    1.148400
C      1.904496    0.551576    0.832876
C      2.105958    1.939210    0.986186
N      3.335157    2.208472    0.574997
C      3.942864    1.074906    0.164694
C      5.198133    0.805535   -0.331574
C      5.575051   -0.484555   -0.666672
C      4.688197   -1.517658   -0.504320
C      3.410719   -1.264201   -0.002603
C      3.051668    0.029239    0.324589
S      0.229242   -1.389120   -1.214732
C      0.169268   -3.028549   -0.389075
C     -4.228705    1.341799   -1.352047
O     -4.509414    1.922808   -0.122955
H     -5.588239   -0.928358    1.142763
H     -4.122994   -0.140633    1.784427
H     -4.279163   -1.953921    1.755193
H     -2.643889    0.216691   -2.291244
H      0.265221    1.820339   -0.715380
H      0.773968   -1.109796    1.573195
H      0.095307    0.479101    1.935513
H      1.358601    2.608389    1.371952
H      3.833283    3.144875    0.542357
H      5.885470    1.641321   -0.451036
H      6.577865   -0.620601   -1.051997
H      4.980509   -2.523847   -0.763728
H      2.732054   -2.082027    0.139965
H     -0.725563   -3.560202   -0.751984
H      1.053774   -3.623629   -0.630587
H      0.142144   -2.909044    0.725412
H     -5.005006    0.615781   -1.599267
H     -4.160961    2.133073   -2.124051
H     -4.191615    2.858235   -0.059067
