69

C     10.459729    0.289378    3.418011
S      8.765668    0.576872    2.795725
O      7.906314   -0.040712    3.946060
C      8.611129   -0.693065    1.494681
C      7.245920   -0.611356    0.848695
O      7.108252    0.678896    0.284047
C      5.967036    1.047359   -0.374184
C      5.895443    2.333308   -0.906561
C      4.755341    2.725457   -1.573626
C      3.699648    1.830386   -1.701985
C      3.745566    0.555051   -1.185419
C      4.910536    0.172594   -0.510892
N      2.681047   -0.376050   -1.306762
C      2.261384   -0.767518   -2.630420
C      0.806927   -0.405033   -2.787909
N      0.199335   -0.026704   -1.569781
C      0.502912   -0.876139   -0.441175
C      1.985472   -0.968028   -0.185955
C     -1.185966    0.278555   -1.624780
C     -2.055528   -0.925512   -1.913917
N     -3.483620   -0.503074   -1.948619
C     -4.269807   -0.500382   -0.899979
C     -5.558090   -0.086164   -1.064593
C     -6.482685   -0.040323   -0.028076
N     -7.768953    0.317491    0.059910
C     -8.219912    0.175104    1.319625
N     -7.142592   -0.293735    2.022393
N     -6.122869   -0.419116    1.226177
C     -4.863421   -0.818804    1.362811
N     -3.966111   -0.869839    0.387021
N     -4.428532   -1.230546    2.668102
C     -9.549683    0.449137    1.846966
C    -10.645288    0.914599    1.181451
C    -11.686083    1.023020    2.079950
C    -11.156606    0.605062    3.286963
O     -9.898577    0.278839    3.096125
S     -5.612865    0.291088   -2.723666
C     -3.996617   -0.098172   -3.116200
O     -3.412363   -0.023233   -4.249201
F      2.555871    2.191135   -2.357165
F      6.930642    3.162894   -0.762377
Cl     0.691047    0.000000    0.000000
H     10.548150   -0.707251    3.863297
H     11.124990    0.436985    2.539391
H     10.696167    1.083180    4.154833
H      8.847242   -1.686408    1.885796
H      9.366902   -0.444526    0.722073
H      6.432824   -0.879976    1.524558
H      7.219815   -1.328088    0.003579
H      4.654875    3.720858   -2.005988
H      4.941869   -0.844683   -0.100890
H      2.311171   -1.891176   -2.693048
H      2.888551   -0.298562   -3.415763
H      0.782433    0.497849   -3.470014
H      0.246982   -1.172879   -3.365627
H      0.049361   -0.385012    0.456401
H      0.031168   -1.872645   -0.521444
H      2.287287   -0.557407    0.780208
H      2.253870   -2.053429   -0.181489
H     -1.493287    0.646141   -0.607553
H     -1.330288    1.080520   -2.397470
H     -1.795424   -1.346051   -2.876772
H     -1.919149   -1.621061   -1.059987
H     -4.789895   -2.104595    3.106011
H     -3.748799   -0.673560    3.204702
H    -10.663945    1.150054    0.126505
H    -12.696937    1.357356    1.902140
H    -11.733936    0.571642    4.214318
H     -0.691047    0.000000    0.000000
