52

C     -6.742240   -1.231777    0.307106
C     -5.718694   -0.208537   -0.074953
C     -4.294949   -0.722491    0.342137
C     -3.370887    0.322037   -0.061981
O     -3.830385    1.444468   -0.531401
C     -1.929003    0.236516   -0.002995
C     -1.284234   -0.635913    0.832677
C      0.104366   -0.736302    0.808865
C      0.809104    0.093611   -0.101916
C      0.168350    0.964398   -0.928903
C     -1.187870    1.050604   -0.898020
C      0.897526    1.903166   -1.809618
C      2.294702    1.897710   -1.771728
C      3.045490    2.673887   -2.641221
C      2.366515    3.468752   -3.557364
C      1.000496    3.464738   -3.578090
C      0.242975    2.688410   -2.712206
O      4.407211    2.681605   -2.628529
C      2.911771    1.124388   -0.714605
O      4.039574    1.542730   -0.255441
C      2.269179   -0.075781   -0.201093
C      2.878419   -0.579833    1.036628
C      3.013960   -0.099872    2.339502
C      3.670308   -0.804762    3.327233
C      4.212200   -2.032628    3.007923
C      4.102171   -2.545869    1.733661
C      3.430112   -1.798897    0.767257
C      3.175249   -2.118490   -0.626343
O      3.519812   -3.153628   -1.267287
O      2.483171   -1.092824   -1.152055
O      0.843106   -1.578729    1.598189
C     -1.991926   -1.474796    1.837358
H     -6.333933   -2.260397    0.181489
H     -7.129711   -1.095962    1.326091
H     -7.593596   -1.158875   -0.403595
H     -5.828965    0.758891    0.452538
H     -5.674044   -0.080893   -1.173848
H     -4.163165   -1.699817   -0.181215
H     -4.428867   -0.886409    1.416952
H     -1.775160    1.689098   -1.499112
H      2.954851    4.092027   -4.254966
H      0.447543    4.070910   -4.275345
H     -0.819067    2.689055   -2.734918
H      5.067144    2.197519   -2.087473
H      2.570166    0.865766    2.530887
H      3.763932   -0.409977    4.338720
H      4.732845   -2.608304    3.761718
H      4.522383   -3.511713    1.462519
H      0.524661   -2.212712    2.259858
H     -2.559496   -2.261804    1.369818
H     -1.266398   -2.011533    2.523283
H     -2.546702   -0.830762    2.563811
