42

C     -1.520847   -2.409459   -1.045884
C     -1.726057   -0.960767   -0.879318
C     -3.166551   -0.721146   -0.452055
C     -3.446060    0.667020   -0.099520
O     -4.486923    1.188551   -0.430347
C     -2.465660    1.465781    0.668273
C     -1.102510    1.182885    0.018616
C     -0.794962   -0.278342    0.088133
C      0.634097   -0.491335   -0.292905
C      1.568997    0.181982    0.658236
C      1.125112    1.500823    1.164107
C     -0.044884    2.103705    0.480708
C      2.981033    0.221131    0.070381
C      3.456229   -1.196942   -0.179210
C      3.064389    1.029546   -1.174992
C     -1.021007   -0.882167    1.447136
H     -2.432283   -3.006068   -0.760493
H     -1.389524   -2.628154   -2.142250
H     -0.682005   -2.859477   -0.526394
H     -1.617270   -0.403595   -1.856153
H     -3.789452   -1.043337   -1.336892
H     -3.435087   -1.428684    0.357635
H     -2.657238    2.565076    0.576195
H     -2.455172    1.242341    1.743283
H     -1.294999    1.412442   -1.071144
H      0.756333   -0.162448   -1.345965
H      0.882218   -1.573603   -0.281632
H      1.670930   -0.505904    1.550704
H      2.006408    2.205089    1.065130
H      0.936534    1.497246    2.279453
H      0.337169    2.782860   -0.335987
H     -0.527541    2.831233    1.201477
H      3.647050    0.673824    0.834078
H      3.467441   -1.774147    0.768162
H      2.818697   -1.711305   -0.921546
H      4.492452   -1.122361   -0.587059
H      4.006044    1.650227   -1.166477
H      3.179193    0.370707   -2.075456
H      2.236758    1.716715   -1.343704
H     -2.058186   -0.757360    1.818069
H     -0.888909   -1.993426    1.319531
H     -0.263960   -0.579157    2.196073
