29

C     -3.427048    0.787993    0.339364
C     -2.985425   -0.518741    0.957918
C     -1.739836   -0.985961    0.277772
C     -0.610272   -0.066077    0.372422
C      0.616181   -0.444778   -0.129051
C      1.717771    0.384656   -0.066924
C      1.531715    1.613938    0.522773
C      0.293880    1.967219    1.016270
O      0.102477    3.106513    1.567944
O     -0.706810    1.123639    0.920315
O      2.923032   -0.050806   -0.587561
C      4.029038    0.829591   -0.504236
C      0.750199   -1.774417   -0.745019
O      2.057541   -2.009528   -1.202480
O     -2.074564   -1.121683   -1.091262
H     -3.107810    0.840483   -0.718497
H     -2.984366    1.630875    0.910399
H     -4.534881    0.821404    0.391171
H     -2.877324   -0.416172    2.055346
H     -3.785950   -1.273597    0.707891
H     -1.519722   -2.012660    0.625683
H      2.370368    2.294517    0.591720
H      3.718662    1.829548   -0.870851
H      4.821318    0.489554   -1.227791
H      4.468012    0.859013    0.510674
H      0.548530   -2.601659   -0.012513
H      0.037593   -1.963329   -1.581644
H      2.093211   -2.993472   -1.408667
H     -1.725520   -0.346062   -1.621166
