30

C     -3.857349    0.465638   -0.783783
C     -3.353440   -0.126062    0.517637
C     -1.904478   -0.390697    0.381682
C     -1.018198    0.701513    0.462505
C      0.315803    0.476579    0.339677
C      0.792940   -0.817644    0.136144
C     -0.062444   -1.888705    0.055683
C     -1.437165   -1.648022    0.183930
O     -2.262450   -2.761232    0.095470
O      2.137964   -1.007851    0.016070
C      3.145526   -0.043745    0.214312
C      2.645204    1.303412   -0.284225
C      1.330584    1.516148    0.414435
O      1.065062    2.554722    1.064446
C      4.368780   -0.504241   -0.554428
O     -1.518799    1.961171    0.661960
H     -4.152590    1.529850   -0.663282
H     -4.772484   -0.070022   -1.143494
H     -3.094505    0.419581   -1.581152
H     -3.468176    0.650616    1.333978
H     -3.955399   -0.994761    0.781412
H      0.317087   -2.886492   -0.102090
H     -3.245339   -2.763010    0.161750
H      3.381518    0.080811    1.294077
H      2.441320    1.272851   -1.374889
H      3.328897    2.112126   -0.000706
H      4.047935   -0.675774   -1.605130
H      4.654279   -1.485896   -0.101224
H      5.214038    0.198744   -0.474670
H     -1.084123    2.820392    0.734324
