45

C     -5.482203    1.106075    2.281481
C     -4.363007    0.824842    1.309250
C     -4.416671   -0.603329    0.876734
C     -3.201884   -1.015590    0.131888
C     -3.251490   -2.042404   -0.800343
C     -2.098927   -2.396584   -1.456574
C     -0.908008   -1.754123   -1.205169
C     -0.831466   -0.739341   -0.292027
C     -2.007849   -0.379383    0.376046
C     -1.956064    0.711143    1.348139
O     -0.870818    1.280300    1.563407
O     -3.137878    1.095951    2.022407
O      0.309436   -0.041399    0.024818
C      1.588064   -0.197339   -0.484511
C      1.956804    1.113641   -1.192254
C      3.063436    1.773364   -0.398190
C      4.253000    0.822153   -0.436491
C      3.783012   -0.477613    0.179992
O      2.466091   -0.438037    0.571151
C      4.626112   -0.709194    1.416671
O      4.390640    0.354665    2.293612
O      4.591105    0.659089   -1.771754
O      2.692862    2.068217    0.899820
O      2.432639    0.842407   -2.454735
O     -4.480839   -2.662733   -1.020360
H     -5.650516    2.217828    2.259947
H     -6.411929    0.559294    2.022831
H     -5.129840    0.867563    3.294630
H     -4.437977    1.457802    0.402377
H     -5.331296   -0.737306    0.269146
H     -4.445249   -1.239816    1.803916
H     -2.177482   -3.211676   -2.185370
H     -0.039816   -2.057420   -1.732905
H      1.604086   -1.005565   -1.233822
H      1.108279    1.807328   -1.232956
H      3.308430    2.722924   -0.934335
H      5.115654    1.260623    0.082744
H      4.013260   -1.298097   -0.524465
H      5.697517   -0.816900    1.190109
H      4.267846   -1.624790    1.951753
H      4.726126    0.170731    3.207892
H      5.231457    1.378467   -2.009553
H      1.722165    2.116159    1.045079
H      2.304961    1.644608   -3.032711
H     -4.621770   -3.406536   -1.665609
