92

C     -2.719436    1.440615    3.395869
C     -3.850844    1.456178    2.403668
C     -3.705665    0.947406    1.200190
C     -4.820447    0.960148    0.217265
C     -4.254680    1.252877   -1.165003
C     -3.514608    0.093595   -1.721593
N     -3.771025   -0.390042   -2.883618
C     -3.092704   -1.500458   -3.468861
C     -2.011858   -2.069098   -2.629323
O     -1.357904   -3.034368   -3.085388
C     -1.724550   -1.528853   -1.331897
C     -2.456786   -0.495696   -0.918929
S     -2.123975    0.211236    0.711838
C     -0.637882   -2.104291   -0.459879
C      0.648352   -1.823834   -1.177238
C      1.870379   -2.292423   -0.552014
C      2.752259   -1.380040   -0.128018
C      3.990131   -1.736197    0.499590
N      4.267748   -2.982216    0.661124
C      3.486614   -4.081953    0.291553
C      2.217127   -3.685873   -0.351144
O      1.388212   -4.588562   -0.748983
C      3.158310   -4.836174    1.611480
C      4.236105   -5.067589   -0.607838
C      4.947361   -0.711655    0.979345
C      4.989094    0.580145    0.232288
C      3.673560    1.264789    0.262156
C      3.449069    2.480602    0.702284
C      4.582613    3.251949    1.215668
O      4.455254    4.252076    1.940408
C      5.922613    2.756692    0.809787
N      6.066408    1.356909    0.751022
C      6.317340    3.481131   -0.480645
C      6.908735    3.277617    1.867568
C      2.114116    3.131828    0.716727
S      2.304681    0.312592   -0.352085
C      5.289473    0.275035   -1.219741
C     -2.439095   -1.133937   -4.794755
C     -4.050914   -2.664340   -3.751899
N     -5.815167    1.960645    0.458137
C     -6.254708    2.097717    1.807989
C     -5.126988    2.041812    2.771868
O     -5.321889    2.520306    3.916366
C     -6.907050    3.473622    1.927845
C     -7.323947    1.096037    2.207872
C     -5.458683   -0.428446    0.124850
H     -2.211284    2.440959    3.430870
H     -3.165562    1.308788    4.403260
H     -2.024037    0.613017    3.222226
H     -5.071308    1.562938   -1.849433
H     -3.511492    2.083644   -1.071294
H     -0.646636   -1.536308    0.491986
H     -0.839316   -3.149142   -0.233105
H      0.641244   -2.250614   -2.222325
H      0.681836   -0.730722   -1.349044
H      2.155734   -5.270756    1.583129
H      3.215220   -4.137453    2.464424
H      3.981358   -5.558906    1.744752
H      4.797523   -5.741084    0.074980
H      3.491226   -5.649499   -1.147077
H      4.909632   -4.483939   -1.258642
H      4.755816   -0.540532    2.068846
H      5.969935   -1.197344    0.940937
H      6.572415    0.916571    1.548231
H      5.446351    3.504786   -1.142728
H      7.206505    2.982588   -0.890601
H      6.605393    4.538075   -0.267801
H      7.181775    4.323573    1.654613
H      7.824443    2.653311    1.861451
H      6.430652    3.147904    2.869003
H      1.586469    2.758812    1.635204
H      1.517882    2.758780   -0.139118
H      2.214600    4.224637    0.709079
H      5.359150    1.202778   -1.843252
H      4.446884   -0.302919   -1.703018
H      6.203236   -0.331087   -1.337903
H     -1.689280   -1.946705   -5.010416
H     -3.155714   -1.053833   -5.619659
H     -1.837657   -0.213000   -4.644245
H     -4.694556   -2.428567   -4.618257
H     -3.411328   -3.558732   -3.917278
H     -4.634497   -2.858361   -2.829062
H     -5.692493    2.837710   -0.071523
H     -7.619035    3.487782    2.778979
H     -7.512547    3.617833    1.007200
H     -6.155484    4.275973    1.975643
H     -7.847350    1.540733    3.081046
H     -6.877040    0.143159    2.554450
H     -8.081315    0.964457    1.423440
H     -5.090923   -0.983238   -0.764409
H     -6.558657   -0.366722    0.027985
H     -5.162514   -1.036858    1.013639
