54

C     -3.191917    2.247901   -2.451852
C     -3.787742    2.894309   -1.202751
C     -4.150849    1.503322   -1.563965
S     -3.671506    0.112670   -0.656142
O     -3.927359   -1.113499   -1.524715
O     -4.634828   -0.072856    0.515545
N     -2.102982    0.007968   -0.070547
C     -1.074053   -0.027320   -1.067753
C     -0.337711   -1.339269   -1.198846
C     -1.178495   -2.489016   -1.530290
C     -1.399484   -2.797638   -2.858922
C     -2.168001   -3.850623   -3.288545
C     -2.765157   -4.662338   -2.333482
C     -2.545733   -4.356744   -1.009151
C     -1.774459   -3.300103   -0.580666
F     -3.538685   -5.718544   -2.734812
N      0.573035   -1.615385   -0.114842
C      1.641114   -0.759030    0.253699
N      2.473540   -1.045490    1.267760
C      3.486511   -0.256035    1.652517
C      3.699905    0.917242    0.982747
C      2.852527    1.220228   -0.059128
N      1.861005    0.390001   -0.393492
C      4.777137    1.826452    1.355673
N      5.041581    3.001935    0.733928
N      6.088129    3.509728    1.378689
C      6.458001    2.673503    2.366804
O      5.629948    1.659003    2.315993
C      7.575804    2.852756    3.327666
F      7.284762    3.954118    4.141336
F      8.733736    3.051396    2.611292
C     -1.774628    0.713021    1.106731
C     -1.941732   -0.138884    2.328832
F     -3.221008   -0.601079    2.520896
F     -1.614654    0.589476    3.488814
F     -1.120528   -1.246165    2.368377
H     -2.112098    2.177068   -2.407708
H     -3.571358    2.608343   -3.448724
H     -4.516353    3.698393   -1.448246
H     -3.124626    3.177087   -0.387628
H     -5.216837    1.431470   -1.975468
H     -1.648439    0.031453   -2.056615
H     -0.364749    0.787015   -1.076749
H      0.336000   -1.180134   -2.109700
H     -0.952880   -2.191483   -3.654763
H     -2.332766   -4.080987   -4.327713
H     -3.014579   -4.992887   -0.262067
H     -1.604009   -3.065583    0.449948
H      0.449824   -2.489680    0.435563
H      4.147942   -0.494149    2.465718
H      2.955504    2.124386   -0.635215
H      7.639880    1.940277    3.973394
H     -2.528760    1.549344    1.213559
H     -0.796922    1.235053    1.077255
