46

C     -3.716976   -1.322274   -0.829696
C     -4.483354   -0.045935   -0.600910
C     -5.810798    0.050045   -0.938199
C     -6.516876    1.209694   -0.730254
C     -5.846753    2.265739   -0.174062
C     -4.486461    2.204755    0.184577
C     -3.811312    1.028313   -0.037941
C     -2.399660    0.916407    0.315486
O     -1.708686    1.828192    0.825651
O     -1.642256   -0.239054    0.122515
C     -0.314539   -0.419889    0.417415
C      0.029597   -1.856322    0.064998
O     -0.874391   -2.691969   -0.201261
C      1.385820   -2.323606    0.019642
C      2.372910   -1.428459   -0.104249
C      3.755279   -1.851837   -0.154910
C      4.781132   -0.979384   -0.277917
O      4.395931    0.330897   -0.349635
C      3.095287    0.809147   -0.307624
C      2.054443    0.000643   -0.188181
C      0.680190    0.477332   -0.139675
O      0.423889    1.598331   -0.565072
C      6.120242   -1.497442   -0.319203
C      7.228781   -0.844114   -0.431295
C      7.494982    0.553998   -0.547576
O      8.689540    0.972286   -0.647794
O      6.523226    1.508316   -0.559258
C     -0.168333   -0.367640    1.946376
O     -3.931142    3.342383    0.737240
O     -7.876927    1.296912   -1.079719
H     -3.414631   -1.749470    0.147478
H     -2.912279   -1.209965   -1.555472
H     -4.478136   -2.053449   -1.233402
H     -6.300437   -0.825356   -1.380851
H     -6.370041    3.200726    0.006489
H      1.647447   -3.375022    0.081620
H      3.959440   -2.926065   -0.089571
H      2.924513    1.878865   -0.374731
H      6.223875   -2.598120   -0.246033
H      8.179218   -1.466279   -0.442273
H      6.696590    2.388178   -1.036913
H      0.653637   -1.025653    2.252530
H      0.023953    0.706493    2.230637
H     -1.139716   -0.625165    2.423399
H     -3.047203    3.542076    1.054000
H     -8.089015    1.612742   -2.016054
