25

C     -0.615290   -1.579452    1.136046
C     -0.951695   -0.521016    0.143615
C     -2.228931    0.214247    0.436029
O     -1.957308    1.562119    0.439926
C     -0.800576    1.774691   -0.289011
C      0.067032    0.612633    0.158082
C      1.041237    0.200302   -0.860870
C      0.512908   -0.705805   -1.681075
C     -0.873153   -0.968954   -1.263967
O     -1.786272   -1.462573   -1.946779
O      2.339060    0.669920   -0.980152
C      3.378103    0.225819   -0.113881
O     -1.028813    1.658394   -1.670604
H     -0.294357   -2.491199    0.558227
H      0.275593   -1.287881    1.736922
H     -1.426673   -1.804400    1.842181
H     -2.938113    0.001031   -0.383128
H     -2.696955   -0.103676    1.391250
H     -0.345247    2.731540   -0.016433
H      0.496034    0.788004    1.147466
H      0.981105   -1.199702   -2.530159
H      3.101222    0.482453    0.925711
H      3.399585   -0.884720   -0.204625
H      4.354021    0.590405   -0.436175
H     -2.002515    1.497820   -1.821629
