42

C      2.979148    0.129251   -2.236736
C      2.214070   -0.153815   -0.999738
C      1.614589    1.057693   -0.347804
C      0.283776    1.396994   -0.850027
C     -0.604402    0.572477   -0.188045
C     -1.957783    0.640124   -0.439926
C     -2.449556    1.544272   -1.368556
N     -1.583524    2.350182   -2.015642
C     -0.259072    2.281271   -1.766733
O      0.560925    3.029623   -2.365438
C     -2.871879   -0.243057    0.272060
C     -3.849239   -0.864080   -0.490633
C     -4.762556   -1.717479    0.083885
C     -4.666948   -1.929583    1.444721
C     -3.691932   -1.313933    2.223892
C     -2.790569   -0.464014    1.620636
O      0.108033   -0.254452    0.698435
C      1.298927    0.479023    1.019004
C      2.457323   -0.377827    1.254382
C      2.993600   -0.749022    0.095858
C      4.188808   -1.623561   -0.126132
O      3.762395   -2.717964   -0.859231
C      1.056847    1.527293    2.042749
H      3.593785    1.040388   -2.219632
H      2.244680    0.143197   -3.093591
H      3.635531   -0.748143   -2.451135
H      1.388071   -0.850543   -1.243526
H      2.308928    1.912256   -0.287482
H     -3.503338    1.559659   -1.529153
H     -1.937335    3.032800   -2.714247
H     -3.926626   -0.696233   -1.574033
H     -5.545359   -2.221026   -0.497965
H     -5.396582   -2.607172    1.884051
H     -3.690567   -1.536458    3.278082
H     -2.030561    0.018353    2.216260
H      2.863800   -0.695927    2.204278
H      4.710859   -1.872995    0.799732
H      4.913366   -1.065593   -0.776740
H      3.516478   -3.442747   -0.242750
H      0.107967    1.258382    2.584807
H      1.893982    1.686506    2.736669
H      0.821941    2.485879    1.516234
