48

C     -6.649436    1.131817   -1.229767
C     -5.239372    0.973243   -0.708275
C     -5.034929   -0.416842   -0.105886
C     -3.553179   -0.406271    0.373825
C     -3.200247   -1.701525    0.987997
C     -1.842904   -1.799287    1.515817
C     -0.636100   -1.709781    0.711352
C     -0.293208   -0.512239   -0.075243
C      1.095577   -0.795999   -0.714033
C      1.561471    0.344302   -1.548380
C      1.727740    1.643539   -0.832098
C      2.723973    1.569829    0.292329
N      4.042021    1.192231   -0.165295
C      5.072364    1.088539    0.806992
O      4.857836    1.314689    2.025350
C      6.460958    0.704661    0.421715
C      6.494837   -0.658803   -0.222251
Br     7.645897    0.713162    1.926769
H     -6.647896    1.994999   -1.923509
H     -7.027919    0.222260   -1.704592
H     -7.322027    1.412468   -0.367805
H     -5.011794    1.693528    0.093328
H     -4.500387    1.058036   -1.535062
H     -5.186967   -1.180407   -0.870728
H     -5.714340   -0.527351    0.738906
H     -3.012053   -0.113164   -0.517628
H     -3.543760    0.377082    1.173552
H     -3.481214   -2.579535    0.332065
H     -3.933536   -1.838651    1.857478
H     -1.743646   -1.084241    2.402072
H     -1.769608   -2.816376    2.066650
H     -0.514472   -2.608374    0.030064
H      0.242779   -1.873524    1.432856
H     -0.190464    0.417326    0.475895
H     -0.913563   -0.329127   -0.989913
H      1.029790   -1.689131   -1.368377
H      1.839535   -0.992227    0.067330
H      0.919930    0.514372   -2.448398
H      2.554437    0.040392   -1.974769
H      2.052229    2.436434   -1.539457
H      0.753080    1.957924   -0.420122
H      2.781850    2.573403    0.751591
H      2.409355    0.824593    1.048332
H      4.275433    0.993268   -1.163796
H      6.850858    1.430361   -0.322368
H      6.141752   -1.417788    0.518743
H      5.885636   -0.700450   -1.144541
H      7.543684   -0.871362   -0.501874
