44

C      5.048944   -0.473878    2.359081
C      4.339367   -0.371510    1.039878
C      5.052035   -0.172657   -0.127732
C      4.396878   -0.077419   -1.351732
C      3.021332   -0.183291   -1.394632
C      2.280283   -0.383096   -0.238129
C      2.973206   -0.470367    0.945241
O      0.911934   -0.493862   -0.235836
C      0.030755    0.536769   -0.101934
C      0.454819    1.834196    0.049137
C     -0.399188    2.905623    0.187719
C     -1.747581    2.642593    0.173766
C     -2.239166    1.339036    0.024869
C     -1.325798    0.286140   -0.116541
C     -1.758814   -1.068201   -0.399619
C     -3.222645   -1.163167   -0.212444
C     -3.497795   -2.497511   -0.318308
C     -2.171228   -3.181146   -0.360997
O     -1.344665   -2.158804    0.282059
C     -4.845630   -2.839532   -0.298537
C     -5.801119   -1.822583   -0.172366
C     -5.445710   -0.491068   -0.064507
C     -4.094943   -0.129093   -0.081202
O     -3.628715    1.175015    0.041570
C      0.129800    4.290797    0.345839
O      5.142504    0.120612   -2.490603
H      6.126017   -0.387557    2.176252
H      4.818744   -1.429410    2.864923
H      4.690214    0.336762    3.030666
H      6.127472   -0.090873   -0.086006
H      2.506693   -0.109551   -2.347239
H      2.422566   -0.626961    1.871800
H      1.524372    2.028129    0.060160
H     -2.440843    3.485888    0.283113
H     -1.523771   -1.259384   -1.515654
H     -2.135143   -4.094340    0.236381
H     -1.809083   -3.282180   -1.395109
H     -5.089064   -3.879438   -0.381889
H     -6.839290   -2.124501   -0.162654
H     -6.200839    0.261169    0.031612
H      0.410667    4.741622   -0.615713
H     -0.612515    4.879138    0.913330
H      1.057334    4.203152    0.945304
H      4.707606    0.194736   -3.393319
