87

C      8.915427   -0.092631    2.849516
C      9.510679   -0.172747    1.530217
C      8.931255   -0.291111    0.391201
C      7.541191   -0.383521    0.032571
C      6.545681   -0.441714    1.133629
C      5.186703   -0.513213    0.417230
C      4.301822    0.444111    0.635119
C      2.983121    0.392180   -0.047554
C      1.839550    0.359509    0.965662
C      0.524914    0.305474    0.244743
C     -0.405536   -0.618612    0.318672
C     -1.535196   -0.258724   -0.569853
C     -1.678297   -1.336180   -1.545424
C     -2.651502   -2.281136   -1.486686
C     -2.761335   -3.282922   -2.416604
C     -1.863999   -3.352837   -3.455000
C     -0.855450   -2.412826   -3.557338
C     -0.769100   -1.423959   -2.614912
O      0.059472   -2.492178   -4.623804
O     -3.581195   -2.247261   -0.444566
C     -3.506158   -1.246960    0.529626
O     -4.070567   -1.514527    1.613815
C     -2.813085   -0.009069    0.251211
C     -2.345739    0.689608    1.495678
C     -3.241764    1.059547    2.576177
C     -4.373167    1.963201    2.385500
C     -4.373214    3.204971    2.911570
C     -3.209258    3.703901    3.712410
C     -5.528792    4.084438    2.693987
C     -3.587672    0.984861   -0.599357
C     -3.934138    0.509355   -1.939471
O     -3.128323    0.663562   -2.881364
C     -5.199567   -0.140788   -2.201865
C     -5.469904   -0.583659   -3.504494
C     -6.672683   -1.199324   -3.768935
C     -7.610146   -1.384958   -2.774654
C     -7.361343   -0.952467   -1.474919
C     -6.137278   -0.333789   -1.237795
O     -8.306230   -1.139249   -0.469169
O     -4.513414   -0.389543   -4.500167
O     -1.170120    0.970384   -1.177028
C      0.074270    1.326642   -0.692621
O      0.730669    2.377087   -1.008484
C      4.972278   -1.650097   -0.469625
C     11.043991   -0.102592    1.491723
H      8.329443    0.855897    3.044596
H      9.764282   -0.070759    3.635683
H      8.289409   -0.953871    3.112541
H      9.625144   -0.334608   -0.542574
H      7.325415   -1.257086   -0.659672
H      7.323250    0.526903   -0.635422
H      6.606496   -1.386083    1.724208
H      6.493298    0.446034    1.774546
H      4.557207    1.255981    1.314044
H      2.919812   -0.382315   -0.806395
H      2.862761    1.377578   -0.573639
H      1.892721    1.281313    1.566176
H      1.942304   -0.499545    1.655746
H     -0.372439   -1.506628    0.924581
H     -3.553448   -4.035615   -2.356271
H     -1.908683   -4.126064   -4.212095
H      0.031189   -0.684815   -2.697718
H      0.918418   -3.040314   -4.502392
H     -1.885077    1.675340    1.106637
H     -1.411268    0.143757    1.893350
H     -3.691723    0.138778    3.098701
H     -2.565485    1.545072    3.386084
H     -5.289112    1.704997    1.869649
H     -3.050657    3.161522    4.645666
H     -3.245642    4.804973    3.822035
H     -2.312039    3.518520    3.051684
H     -6.435261    3.502787    2.425235
H     -5.246702    4.813480    1.880908
H     -5.763343    4.691377    3.607852
H     -4.449818    1.337842   -0.029549
H     -2.899787    1.889892   -0.645199
H     -6.900468   -1.553006   -4.786694
H     -8.550037   -1.865845   -2.975735
H     -5.952359    0.007089   -0.226029
H     -8.059474   -0.800541    0.453960
H     -4.734232   -0.718928   -5.428616
H      5.661703   -2.471655   -0.191988
H      5.163720   -1.445845   -1.538191
H      3.947317   -2.093065   -0.409930
H     11.341020    0.717572    2.173323
H     11.394983    0.130743    0.475035
H     11.380308   -1.091095    1.857298
