48

C     -2.489867    3.146984    0.177155
C     -2.250392    1.988396    1.050942
N     -1.523833    0.951935    0.403297
S     -1.344782    1.438970   -1.268833
O     -0.083126    2.180170   -1.512501
O     -1.642918    0.352488   -2.219401
C     -2.660241    2.679173   -1.262004
C     -2.343936   -0.230991    0.404207
C     -1.525649   -1.455780    0.508959
C     -2.321114   -2.710030    0.495312
C     -1.636356   -3.909807    0.459552
C     -2.296322   -5.127772    0.444550
C     -3.673349   -5.164370    0.465429
C     -4.337623   -3.958641    0.500991
C     -3.684105   -2.747556    0.515953
F     -4.374283   -6.334212    0.452069
N     -0.443486   -1.440233   -0.436458
C      0.731970   -0.683663   -0.285788
N      1.673588   -0.729313   -1.237632
C      2.837941   -0.028173   -1.120042
C      3.027448    0.734643    0.007617
C      2.063683    0.784091    0.986508
N      0.939850    0.064307    0.799453
C      4.244523    1.508887    0.201158
N      4.572680    2.295281    1.240530
N      5.769044    2.815737    1.019572
C      6.182674    2.345468   -0.168041
O      5.240644    1.565820   -0.626107
C      7.465223    2.646246   -0.844433
F      7.566618    4.011902   -1.024102
F      8.500809    2.198300   -0.031388
H     -1.600903    3.825735    0.172182
H     -3.407279    3.681800    0.521355
H     -3.189448    1.607861    1.550990
H     -1.620359    2.335831    1.923047
H     -3.594773    2.149000   -1.435222
H     -2.429144    3.490869   -1.950597
H     -3.082037   -0.210898    1.268815
H     -3.023619   -0.244440   -0.487893
H     -1.061463   -1.419570    1.560966
H     -0.548646   -3.907458    0.442506
H     -1.767103   -6.070545    0.416585
H     -5.423201   -4.001505    0.517162
H     -4.215154   -1.801005    0.544022
H     -0.567451   -2.055792   -1.305179
H      3.591872   -0.073980   -1.897985
H      2.218141    1.382314    1.865425
H      7.535259    2.123525   -1.802710
