41

C      2.525805   -2.354290   -1.576696
C      1.705770   -1.361621   -0.789427
C      2.253719   -0.650597    0.191042
C      3.690699   -0.878009    0.469003
C      1.392455    0.316356    0.934183
C      1.829655    1.691545    0.857778
C      1.017841    2.655574    0.482237
C     -0.368047    2.393499    0.121905
C     -0.816986    1.112291    0.181387
O      0.061349    0.138009    0.577789
C     -2.123685    0.809924   -0.150283
C     -2.922294    1.867313   -0.535971
N     -2.471816    3.133110   -0.592735
C     -1.217553    3.417187   -0.273469
O     -0.752164    4.578218   -0.310502
C     -2.596587   -0.567075   -0.083587
C     -2.331096   -1.413415    0.971433
C     -2.784597   -2.715545    1.022869
C     -3.530436   -3.182914   -0.021855
C     -3.827156   -2.373225   -1.109087
C     -3.351018   -1.062215   -1.125238
C      3.231212    2.125168    1.198021
H      1.945203   -2.667401   -2.445697
H      2.745614   -3.252705   -0.972729
H      3.448553   -1.860795   -1.941814
H      0.644972   -1.221492   -1.025058
H      3.951566   -0.695200    1.536676
H      3.977853   -1.959401    0.300208
H      4.354389   -0.317113   -0.231643
H      1.465839   -0.030674    2.013049
H      1.368922    3.707450    0.428485
H     -3.954896    1.686083   -0.806571
H     -3.086405    3.944672   -0.889229
H     -1.746395   -1.045151    1.789181
H     -2.563916   -3.364666    1.863141
H     -3.893658   -4.209575    0.008373
H     -4.415889   -2.736050   -1.937854
H     -3.588033   -0.437961   -1.978543
H      3.859788    1.966505    0.311505
H      3.592718    1.605490    2.108777
H      3.278704    3.208698    1.430947
