48

C     -2.140701   -5.360585    0.203776
S     -2.331289   -3.647611    0.300533
O     -3.346060   -3.080466   -0.686012
O     -2.984672   -3.363000    1.718993
N     -0.860555   -2.735402    0.311759
C     -1.031898   -1.504125   -0.437878
C     -1.284318   -0.537084    0.805096
C     -2.281573    0.500156    0.182910
C     -1.802402    1.442576   -0.647605
C     -2.578250    2.543176   -0.939057
C     -3.859717    2.612374   -0.413799
C     -4.390033    1.616699    0.353618
C     -3.604109    0.568257    0.651252
O     -4.605352    3.733289   -0.731127
C     -5.358560    4.461293    0.231247
F     -4.926718    4.192426    1.527848
F     -6.672614    4.129094    0.138535
F     -0.724705    1.130352   -1.456146
N     -0.284828    0.042424    1.559612
C      1.110823    0.020904    1.144018
N      1.478118    1.219115    0.636142
C      2.596053    1.264663   -0.090614
C      3.333262    0.114254   -0.243683
C      2.907396   -1.088679    0.337090
N      1.785039   -1.059835    1.057577
C      4.741079    0.275488   -0.687133
N      5.286937    0.191925   -1.854290
N      6.566891    0.416379   -1.691160
C      6.786511    0.664509   -0.388585
O      5.646491    0.592630    0.229095
C      8.116095    0.915216    0.221537
F      8.891690    1.655832   -0.638506
F      8.682608   -0.345148    0.438702
H     -3.172778   -5.794015    0.367464
H     -1.665567   -5.689203   -0.702083
H     -1.580950   -5.717427    1.126613
H     -0.103149   -3.111256    0.684765
H      0.115713   -1.195465   -0.635156
H     -1.516937   -1.375211   -1.244375
H     -1.954834   -1.148998    1.505085
H     -2.159421    3.349191   -1.514357
H     -5.376875    1.655206    0.814282
H     -4.000118   -0.279042    1.230037
H     -5.150992    5.538370    0.070887
H     -0.559453    0.544691    2.418813
H      2.890742    2.188394   -0.600212
H      3.342693   -2.024629   -0.039868
H      8.031285    1.478296    1.176690
