39

C      5.582264    1.537266   -0.700335
C      4.248787    0.851828   -0.922138
C      4.188750   -0.326126    0.045487
O      2.995161   -1.055714   -0.053981
C      1.725812   -0.541413    0.164147
O      1.626533    0.665913    0.474579
C      0.563283   -1.418140    0.025139
C      0.535679   -2.749705   -0.306429
N     -0.726511   -3.161314   -0.321021
C     -1.476806   -2.096766   -0.001825
N     -0.692412   -1.024690    0.211641
C     -1.204894    0.279215    0.574752
C     -1.197645    0.546135    2.038113
C     -2.607888    0.369411    0.092836
C     -3.643502   -0.039998    0.923681
C     -4.966597    0.017092    0.539292
C     -5.249029    0.500857   -0.718068
C     -4.237892    0.913064   -1.560387
C     -2.929811    0.846663   -1.155524
Cl     0.684697    0.000000    0.000000
H      5.941881    1.950211   -1.672198
H      5.548438    2.290821    0.093976
H      6.307121    0.746786   -0.419276
H      4.210225    0.519920   -1.967282
H      3.403468    1.544387   -0.754415
H      5.026111   -1.002478   -0.271287
H      4.437447   -0.007738    1.077126
H      1.448543   -3.334584   -0.516914
H     -2.574771   -2.138439    0.064728
H     -0.615101    1.034182   -0.018790
H     -1.098119   -0.349954    2.670539
H     -2.128385    1.075119    2.399721
H     -0.377200    1.291571    2.249543
H     -3.424503   -0.427429    1.929121
H     -5.718072   -0.315813    1.231503
H     -6.281778    0.550648   -1.031113
H     -4.510195    1.291721   -2.553952
H     -2.128392    1.167489   -1.808469
H     -0.684697    0.000000    0.000000
