58

C      8.373679   -1.001711    1.473395
C      7.109776   -0.453317    0.881273
C      6.081170   -1.286547    0.504452
C      4.895542   -0.788425   -0.049677
C      4.731352    0.565776   -0.231898
C      5.763074    1.392776    0.146749
C      6.940422    0.902214    0.696641
C      3.486870    1.108027   -0.813215
N      3.203250    2.335822   -1.044327
O      1.964390    2.523238   -1.592114
C      1.532795    1.267725   -2.065222
C      2.337843    0.291968   -1.227006
C      1.439151   -0.073468   -0.128639
O      1.681783   -0.889253    0.776394
N      0.205698    0.648393   -0.228679
C      0.085925    1.075955   -1.622654
O     -0.532993    0.165977   -2.442844
C     -0.694806    0.939615    0.834951
C     -1.742764   -0.046408    1.165281
C     -2.736780   -0.419712    0.149778
C     -3.560105    0.690304   -0.368716
C     -3.962693    1.782132    0.366334
C     -4.743066    2.787211   -0.206904
C     -5.129756    2.711105   -1.523214
C     -4.735616    1.630096   -2.264577
C     -3.964831    0.643935   -1.686572
C     -3.611875   -1.514287    0.704037
C     -4.125227   -1.527939    1.958080
C     -4.929685   -2.562943    2.429058
C     -5.239464   -3.623264    1.634437
C     -4.721213   -3.624415    0.345932
C     -3.930435   -2.602227   -0.109765
H      8.272358   -2.090361    1.566883
H      9.252068   -0.734085    0.816796
H      8.567788   -0.484337    2.436935
H      6.220095   -2.343297    0.651378
H      4.122357   -1.466171   -0.330122
H      5.624334    2.448642   -0.000021
H      7.755757    1.545421    0.996724
H      1.706982    1.067479   -3.115274
H      2.657201   -0.595847   -1.796678
H     -0.471073    2.032499   -1.673429
H     -1.276378    0.587910   -2.971752
H     -0.130286    1.119761    1.812557
H     -1.169093    1.969489    0.687031
H     -1.239261   -1.003631    1.504893
H     -2.308983    0.261957    2.097554
H     -2.210661   -0.898325   -0.696924
H     -3.663538    1.846808    1.395099
H     -5.061579    3.652822    0.377876
H     -5.744075    3.491884   -1.993205
H     -5.053139    1.590885   -3.303585
H     -3.676882   -0.188912   -2.305669
H     -3.937760   -0.741324    2.642161
H     -5.320633   -2.534705    3.441398
H     -5.859137   -4.449366    1.954711
H     -4.973495   -4.471005   -0.276413
H     -3.554376   -2.662544   -1.132484
