43

C     -3.453922    3.412867   -1.179156
C     -2.674639    2.692506   -0.115572
O     -2.208009    3.381042    0.839283
N     -2.460967    1.287477   -0.166816
C     -1.700649    0.684033    0.899094
C     -1.532382   -0.790029    0.754392
C     -2.813252   -1.528296    0.732306
C     -4.018473   -0.937995    0.939212
C     -5.162847   -1.730456    0.894298
C     -5.057084   -3.082373    0.644245
C     -3.840790   -3.667000    0.437467
C     -2.718154   -2.902069    0.479277
F     -6.162012   -3.858844    0.598870
N     -0.719860   -1.206234   -0.343650
C      0.650443   -0.870567   -0.497594
N      1.400562   -1.266538   -1.534910
C      2.706551   -0.935956   -1.657817
C      3.310774   -0.158855   -0.684741
C      2.525503    0.239976    0.375288
N      1.221938   -0.118052    0.451663
C      4.715758    0.204921   -0.803554
N      5.557147   -0.133396   -1.792437
N      6.754825    0.384090   -1.551513
C      6.655911    1.047840   -0.405642
O      5.404033    0.926040    0.034094
C      7.686425    1.814538    0.332059
F      8.760942    0.980321    0.526638
F      8.085352    2.855846   -0.504806
H     -4.291697    3.917216   -0.633016
H     -3.806126    2.688788   -1.931064
H     -2.838285    4.179700   -1.663755
H     -2.867057    0.780404   -0.971630
H     -2.158144    0.873596    1.894899
H     -0.705276    1.162220    0.926371
H     -1.004232   -1.138040    1.692182
H     -4.064891    0.122950    1.133437
H     -6.095167   -1.232244    1.061733
H     -3.768007   -4.726885    0.242299
H     -1.761121   -3.381209    0.313159
H     -1.138626   -1.804334   -1.108059
H      3.307495   -1.262378   -2.504018
H      2.977682    0.841772    1.136902
H      7.300326    2.253607    1.254344
