73

C      5.993425    1.270657    2.020870
C      5.306151    2.108486    0.967048
C      4.436583    3.112918    1.700680
C      4.548979    1.318796    0.013488
C      5.431832    0.262814   -0.637057
N      5.097567   -0.964529   -1.007989
C      6.023226   -1.798070   -1.476575
C      7.294217   -1.249216   -1.579345
S      7.061049    0.293181   -0.919737
N      3.225506    0.889704    0.234277
C      2.822776   -0.441256    0.460916
O      3.705051   -1.229119    0.927447
C      1.484448   -0.908009    0.056047
C      1.370884   -0.829294   -1.465158
C      2.698048   -1.330056   -2.027806
C      1.112946    0.537314   -1.978807
N      0.390541   -0.459878    0.792910
C     -0.958882   -0.585180    0.366650
O     -1.202432   -0.738238   -0.827860
C     -2.030255   -0.564621    1.359999
C     -3.232117   -1.422706    0.788544
C     -3.099470   -2.857575    0.831238
C     -4.292891   -3.573024    0.633005
C     -4.251702   -4.898380    0.235581
C     -3.064556   -5.498657    0.031078
C     -1.856480   -4.851504    0.246220
C     -1.932626   -3.504269    0.634049
N     -2.719706    0.646679    1.622236
C     -3.515620    1.360189    0.723939
O     -3.436274    1.054252   -0.495709
O     -4.404506    2.353848    1.152480
C     -5.309404    2.827756    0.179165
C     -4.604926    3.653867   -0.835260
C     -5.906562    1.608035   -0.536736
C     -6.440324    3.587702    0.798522
H      6.634220    1.969271    2.588149
H      6.686961    0.514107    1.582570
H      5.314825    0.784517    2.728870
H      6.084747    2.681247    0.430193
H      3.747183    3.539310    0.941630
H      5.136042    3.853455    2.121741
H      3.864833    2.555919    2.471951
H      4.429182    1.998870   -0.950890
H      5.751498   -2.845061   -1.614948
H      8.146495   -1.761047   -2.054158
H      2.460723    1.631089    0.264485
H      1.484107   -2.061191    0.241901
H      0.648110   -1.602942   -1.852842
H      3.316059   -0.378993   -2.168046
H      3.208355   -1.960054   -1.308723
H      2.621874   -1.807240   -3.002842
H      2.046984    1.034493   -2.376333
H      0.420366    0.458763   -2.858997
H      0.690340    1.236400   -1.227111
H      0.551175   -0.057230    1.753250
H     -1.793893   -1.156774    2.282998
H     -4.201432   -1.034548    1.074148
H     -3.187414   -1.184385   -0.349172
H     -5.241240   -3.092916    0.680857
H     -5.151880   -5.437627   -0.020971
H     -3.040453   -6.551055   -0.302363
H     -0.975748   -5.414762    0.200578
H     -0.997138   -2.991676    0.792524
H     -2.705887    0.988450    2.644438
H     -4.108577    3.024957   -1.593529
H     -3.857881    4.339407   -0.329057
H     -5.365452    4.275874   -1.404490
H     -6.981185    1.687962   -0.690563
H     -5.430729    1.487963   -1.536696
H     -5.722526    0.677126    0.033518
H     -6.066357    4.565756    1.196921
H     -7.013973    3.012439    1.551708
H     -7.146808    3.837507   -0.007766
