93

C     -9.650317   -1.093217   -3.689041
C    -10.139856   -0.818412   -2.285269
O     -9.050346   -0.723428   -1.385682
C     -8.040812    0.200688   -1.515653
O     -8.112259    0.991189   -2.496662
C     -6.914073    0.286015   -0.566595
C     -7.045116    1.614519    0.171961
C     -6.012347    1.530569    1.315344
C     -4.678803    1.410052    0.601414
C     -4.483230    0.170504   -0.188793
C     -5.585423    0.166154   -1.260294
C     -4.691090   -1.099530    0.556989
C     -5.981088   -1.427443    0.871337
O     -7.075690   -0.693012    0.464109
C     -6.255585   -2.555780    1.635845
C     -5.220360   -3.347809    2.076583
C     -3.903019   -3.027678    1.759874
C     -3.660654   -1.911178    1.004739
C     -2.300648   -1.611018    0.541601
C     -2.110741   -0.536369   -0.330870
O     -3.192010    0.217287   -0.742600
C     -0.824228   -0.213269   -0.795714
C      0.244706   -0.958145   -0.387601
C      0.041023   -2.002898    0.464381
C     -1.233823   -2.357896    0.952281
O      1.119185   -2.770714    0.887124
C      1.661894   -0.682431   -0.818476
C      2.429059   -0.037538    0.209873
C      2.987261    1.144223    0.120341
C      3.765828    1.678999    1.306304
C      5.209592    1.886927    0.945615
C      5.873279    0.630213    0.533742
C      6.451813    0.515070   -0.637560
C      6.468167    1.630380   -1.596043
C      7.112976   -0.797574   -1.000641
C      8.577501   -0.578955   -1.264840
C      9.318488   -0.024007   -0.119393
C     10.335889   -0.655128    0.457664
C     11.076410   -0.078464    1.617796
C     10.720675   -1.990877   -0.101345
C      2.851889    1.952417   -1.047047
O      2.246226    1.715345   -2.103873
O      3.485342    3.224149   -1.040885
O     -2.944923   -3.872476    2.237785
C     -3.563578    1.851920    1.466824
C     -3.732340    1.913185    2.782396
C     -2.229309    2.295639    0.965589
H    -10.419683   -1.617703   -4.305331
H     -8.711437   -1.642885   -3.641238
H     -9.444679   -0.112414   -4.185710
H    -10.756367   -1.685197   -1.929543
H    -10.733816    0.119865   -2.263216
H     -8.037006    1.669298    0.611948
H     -6.825502    2.487253   -0.435297
H     -6.225663    0.732148    2.019371
H     -6.011490    2.544653    1.775084
H     -4.748087    2.243731   -0.191878
H     -5.586112   -0.776102   -1.821371
H     -5.480712    1.043290   -1.923784
H     -7.272500   -2.825724    1.894317
H     -5.472118   -4.212941    2.669554
H     -0.703545    0.603912   -1.456583
H     -1.325552   -3.173200    1.613795
H      1.048688   -3.547607    1.509588
H      2.123130   -1.731280   -0.940339
H      1.619419   -0.299600   -1.818475
H      2.554065   -0.597027    1.160088
H      3.284222    2.639548    1.572769
H      3.659502    1.010186    2.177258
H      5.288770    2.697081    0.225745
H      5.729286    2.173131    1.921046
H      5.854568   -0.198578    1.258521
H      6.736952    2.618834   -1.158408
H      5.515453    1.774619   -2.148443
H      7.233148    1.480990   -2.403190
H      6.677901   -1.198723   -1.940140
H      7.010448   -1.542505   -0.194109
H      8.769490    0.011323   -2.180607
H      9.010746   -1.592735   -1.468843
H      9.059934    0.959385    0.322316
H     10.875041    1.006731    1.674717
H     12.170773   -0.268764    1.459324
H     10.798901   -0.626042    2.522655
H     10.997309   -1.921226   -1.170429
H     11.649884   -2.338273    0.426039
H      9.903971   -2.716073    0.093746
H      3.274273    3.903356   -1.758222
H     -3.065771   -4.677356    2.802295
H     -4.683035    1.640449    3.210791
H     -2.944609    2.228749    3.439295
H     -2.068713    3.390864    1.229083
H     -2.277704    2.292317   -0.139500
H     -1.397306    1.685210    1.312678
