71

C      0.376569    0.049536   -4.946736
C     -0.746052    0.212609   -3.960592
C     -0.463405    0.045040   -2.633856
C     -1.495728    0.189134   -1.662095
C     -2.754474    0.494372   -2.028151
C     -3.010913    0.658867   -3.406135
C     -2.027941    0.521454   -4.360488
O     -4.329006    0.970228   -3.734499
C     -3.832607    0.756130   -1.073351
O     -4.978754    1.029957   -1.450914
C     -3.439225    0.666181    0.328540
C     -2.178801    0.358156    0.690817
C     -1.124147   -0.088865   -0.248001
C     -0.892273   -1.549594   -0.106291
C      0.462539   -2.060184   -0.310323
C      1.507470   -1.322728    0.499926
C      2.851565   -1.842539    0.429104
C      3.949452   -1.030976    0.685101
C      5.242120   -1.537111    0.724687
C      5.431304   -2.910853    0.492964
C      4.336878   -3.701210    0.236868
C      3.068639   -3.198402    0.201337
C      4.493336   -5.176124   -0.018746
O      6.353106   -0.792454    0.974975
C      3.768561    0.409278    0.804164
O      4.699334    1.222152    1.042411
C      2.425362    0.949629    0.637824
C      1.356262    0.131025    0.380487
C      0.105187    0.681977    0.100742
C     -0.061489    2.073993    0.089561
C      1.014280    2.863166    0.353382
C      2.249940    2.333055    0.626000
O      3.360410    3.116053    0.896984
O     -1.328495    2.630063   -0.191993
C     -1.433111    4.027377   -0.188762
O      1.140652   -1.559167    1.899537
C     -1.891996    0.396598    2.061527
C     -2.826761    0.724048    3.008974
C     -4.123818    1.037228    2.633388
C     -4.420415    1.005547    1.289867
O     -5.695432    1.306495    0.835006
O     -2.490466    0.747307    4.356787
C     -3.471401    1.087462    5.308969
H      0.163562    0.606398   -5.890053
H      0.480339   -1.018734   -5.258018
H      1.325099    0.444223   -4.550551
H      0.548746   -0.183430   -2.305702
H     -2.253426    0.652424   -5.403064
H     -4.545904    1.094761   -4.715128
H     -1.593219   -2.156151   -0.732376
H     -1.188095   -1.804643    0.963526
H      0.849884   -2.233187   -1.299086
H      0.457903   -3.107414    0.164792
H      6.422049   -3.313584    0.520475
H      2.250600   -3.856909   -0.004452
H      4.050745   -5.435232   -1.019427
H      5.579133   -5.371325   -0.126087
H      4.104298   -5.781946    0.797839
H      6.539514    0.126336    1.165316
H      0.897031    3.958242    0.349615
H      3.233659    4.119137    0.888519
H     -1.125319    4.476951    0.787234
H     -0.762765    4.448984   -0.960457
H     -2.494527    4.308190   -0.343730
H      1.432565   -2.484196    2.080612
H     -0.900864    0.161944    2.362383
H     -4.901774    1.300278    3.324210
H     -6.433115    1.553083    1.453732
H     -3.102183    1.101330    6.333409
H     -3.879371    2.091263    4.993269
H     -4.330821    0.379295    5.154203
