56

C      5.843379    2.847756   -0.075230
C      4.821571    2.147382   -0.937361
C      4.938840    0.664465   -0.677091
C      3.959950   -0.138157   -1.489189
C      2.536747    0.208913   -1.219411
C      2.145866   -0.014770    0.228809
C      0.682694    0.358939    0.433705
C      0.283541    0.144736    1.865551
C      0.447835   -1.264423    2.275766
C     -0.232644   -2.333689    1.522998
C     -1.695484   -2.345224    1.433179
C     -2.399545   -1.234366    0.755117
C     -3.892147   -1.558810    0.821316
C     -4.716616   -0.536442    0.179573
C     -4.295658    0.555052   -0.405597
C     -5.225081    1.503595   -1.013506
C     -4.787945    2.603175   -1.602013
C     -5.682539    3.576510   -2.221278
O     -5.220726    4.609082   -2.769993
O     -7.053812    3.404627   -2.229229
O      0.271578   -3.606921    1.906584
C      0.949974   -4.248599    0.904467
H      6.606003    2.140042    0.338201
H      6.356703    3.679977   -0.605611
H      5.323494    3.271073    0.806723
H      3.831698    2.556376   -0.724265
H      5.048126    2.370157   -1.998797
H      4.851528    0.433581    0.389467
H      5.960926    0.362195   -1.007747
H      4.105295   -1.208832   -1.188341
H      4.172610   -0.066834   -2.555718
H      2.256320    1.230798   -1.484172
H      1.900084   -0.474300   -1.821409
H      2.270688   -1.079756    0.487109
H      2.751162    0.591269    0.925235
H      0.508827    1.419107    0.119037
H      0.108726   -0.262275   -0.275705
H      1.086219    0.733471    2.495813
H     -0.643402    0.634374    2.152023
H      1.571429   -1.473638    2.351781
H      0.114745   -1.299798    3.371206
H      0.132143   -2.281828    0.421852
H     -2.155148   -2.528549    2.456268
H     -2.005975   -3.292202    0.873062
H     -2.172743   -1.319355   -0.360680
H     -2.192042   -0.219158    1.007009
H     -4.023870   -2.558852    0.353545
H     -4.147454   -1.611709    1.888577
H     -5.794053   -0.693876    0.185843
H     -3.244736    0.746381   -0.434044
H     -6.294102    1.351857   -1.009687
H     -3.720300    2.764612   -1.611407
H     -7.710600    4.175159   -2.234919
H      1.293701   -5.220240    1.312723
H      0.299406   -4.500137    0.035101
H      1.874815   -3.711923    0.578306
