42

C      1.026329   -1.834625    1.313065
C      1.282797   -0.376323    0.954017
C      2.410606    0.065161    1.785259
C      3.521729    0.504273    1.281951
C      4.611917    0.930766    2.208420
C      3.764923    0.602375   -0.132769
C      4.966496    1.078212   -0.527465
C      5.244560    1.189679   -1.941844
O      6.382200    1.640944   -2.302064
O      4.286683    0.810428   -2.858665
C      0.077778    0.450830    1.252767
O      0.187271    1.347016    2.119115
C     -1.173584    0.215308    0.561065
C     -1.234269   -0.741677   -0.422899
C     -2.423638   -0.987532   -1.087333
C     -3.531817   -0.257262   -0.741431
C     -3.498966    0.706207    0.239467
C     -2.299090    0.954253    0.909666
N     -4.760596   -0.477597   -1.409755
C     -5.655380   -1.522087   -0.972893
C     -5.077928    0.381890   -2.528339
H      1.356518   -2.472565    0.472497
H     -0.011705   -2.040260    1.562029
H      1.651691   -2.166641    2.187130
H      1.486563   -0.316896   -0.104610
H      2.324949    0.034182    2.889191
H      4.276564    0.845553    3.237772
H      5.481239    0.274438    2.055948
H      4.882815    1.978563    1.980452
H      3.050239    0.319608   -0.905720
H      5.699809    1.367027    0.212314
H      4.295193    1.220853   -3.789252
H     -0.349078   -1.285745   -0.669570
H     -2.457817   -1.739697   -1.855952
H     -4.371784    1.277449    0.507734
H     -2.219075    1.697284    1.683968
H     -6.571291   -1.506436   -1.621152
H     -5.984167   -1.389096    0.079615
H     -5.209688   -2.548728   -1.117097
H     -6.111004    0.145970   -2.847971
H     -5.000200    1.433222   -2.149553
H     -4.327791    0.191673   -3.324112
