52

C     -6.386370    0.191331   -0.063637
C     -5.332239   -0.852299    0.018852
C     -4.119347   -0.768197   -0.461649
C     -3.503803    0.346839   -1.182851
C     -2.232071    0.723443   -0.554441
C     -2.200437    1.454995    0.596258
C     -0.983606    1.810688    1.193594
C      0.208127    1.428656    0.629650
C      0.186289    0.686881   -0.537675
C     -1.006316    0.353126   -1.098861
C      1.522296    0.324293   -1.121491
C      2.128679   -0.841374   -0.364052
C      3.305131   -0.749046    0.232721
C      3.581359   -2.035347    0.866613
O      4.641984   -2.255292    1.518226
O      2.521083   -2.864935    0.611684
C      1.584401   -2.174796   -0.187297
O      0.309768   -2.237862    0.369516
C     -0.507659   -2.954015   -0.497403
C      4.242786    0.403464    0.252809
C      4.600108    1.097482   -0.876143
C      5.469540    2.188095   -0.793149
C      5.995032    2.602067    0.411397
C      5.634745    1.902670    1.541796
C      4.772692    0.822825    1.455412
O      6.865830    3.699469    0.470767
O     -3.324432    1.898454    1.254687
C     -5.762883   -2.109996    0.739455
H     -6.055163    1.125091   -0.534451
H     -7.300712   -0.231295   -0.568020
H     -6.714760    0.438537    0.969691
H     -3.454969   -1.645299   -0.314385
H     -4.161002    1.234908   -1.278171
H     -3.281836    0.043279   -2.247319
H     -0.954634    2.389963    2.105575
H      1.157469    1.698995    1.084004
H     -1.033874   -0.215560   -2.002494
H      1.397182    0.035480   -2.182131
H      2.144368    1.234409   -0.987865
H      1.517474   -2.694390   -1.191592
H     -1.539574   -3.048173   -0.131498
H     -0.493267   -2.470074   -1.492591
H     -0.067940   -3.980938   -0.698434
H      4.237222    0.813535   -1.848616
H      5.754825    2.739327   -1.676129
H      6.025574    2.198957    2.490270
H      4.482426    0.265152    2.339359
H      7.862018    3.464140    0.367592
H     -4.226798    1.706392    0.904216
H     -5.625576   -1.922694    1.824165
H     -5.067477   -2.937773    0.458771
H     -6.811664   -2.333583    0.525376
