48

C      4.301832    0.858456    1.143671
C      5.182498    0.062115    2.097115
C      6.455818   -0.005399    1.328597
O      7.533624   -0.405395    1.839517
O      6.218828    0.433067    0.028959
C      4.805909    0.421341   -0.213179
C      4.330849   -0.936957   -0.596599
C      2.837680   -1.037375   -0.663972
C      2.154199   -0.748875   -1.826063
C      0.762003   -0.848348   -1.890148
C      0.023609   -1.238590   -0.792795
C      0.698722   -1.529028    0.371798
C      2.096860   -1.426810    0.428715
O      0.049168   -1.931833    1.530487
O     -1.330508   -1.333180   -0.858373
C     -2.319513   -0.409198   -0.629704
C     -3.339134   -0.187351   -1.685959
C     -3.931064    1.209062   -1.431070
C     -4.562014    1.131746   -0.053550
C     -3.621460    0.531207    0.961846
O     -3.047802   -0.654404    0.563298
C     -4.384584    0.323387    2.204669
O     -5.015912    1.271739    2.780958
O     -4.430238   -0.930010    2.779468
O     -4.803912    2.450903    0.349173
O     -4.890733    1.520027   -2.371893
O     -2.925569   -0.328138   -2.982747
O      0.127026   -0.546809   -3.083103
H      4.552393    1.927136    1.317993
H      3.244850    0.640321    1.323099
H      4.716876   -0.909960    2.242675
H      5.307631    0.580471    3.075442
H      4.627036    1.182902   -0.999698
H      4.791000   -1.189898   -1.579071
H      4.751042   -1.677374    0.124344
H      2.726457   -0.440027   -2.698248
H      2.624918   -1.661006    1.351000
H     -0.938519   -2.034265    1.565382
H     -1.820524    0.582343   -0.415241
H     -4.210923   -0.876785   -1.467989
H     -3.138929    1.977845   -1.379362
H     -5.547581    0.624829   -0.075742
H     -2.849096    1.324918    1.170619
H     -4.693714   -1.104655    3.747306
H     -5.760350    2.673880    0.344963
H     -4.870681    2.432820   -2.703972
H     -3.176112    0.495522   -3.489889
H      0.688047   -0.264369   -3.871916
