43

C      3.456957    0.341897   -0.527859
C      2.479105    0.324726    0.643565
C      2.184799   -1.068966    1.103084
C      1.096858   -1.730720    0.316549
C      0.101702   -0.862095   -0.298452
C      0.174332    0.588922   -0.080690
C      1.281439    1.140230    0.358952
C      1.368085    2.602784    0.593332
O      2.431515    3.124673    1.012267
C     -1.158100    1.189001   -0.463186
C     -2.044301   -0.046286   -0.619222
C     -1.329413   -1.166726    0.091238
C     -1.575172   -1.202431    1.545081
C     -1.727579   -2.455902   -0.627429
C     -1.774763    1.991475    0.652249
C     -1.099792    1.951626   -1.748894
O     -2.371481    2.454418   -1.998235
O      0.109728   -1.037767   -1.710854
O      0.453751   -2.638449    1.192169
H      2.941952    0.282296   -1.489402
H      4.212486   -0.432102   -0.347647
H      4.001449    1.328578   -0.509078
H      3.024534    0.828838    1.483467
H      1.940254   -1.098917    2.185375
H      3.124784   -1.651159    0.998548
H      1.575827   -2.382509   -0.450510
H      0.538612    3.252539    0.415918
H     -2.034916   -0.288006   -1.706195
H     -3.059025    0.131144   -0.234032
H     -2.544987   -0.675881    1.763945
H     -0.784370   -0.791608    2.180019
H     -1.744963   -2.256854    1.887832
H     -2.739403   -2.794436   -0.321539
H     -1.795458   -2.184586   -1.720498
H     -0.971320   -3.235976   -0.558312
H     -2.801489    1.638416    0.917960
H     -1.828275    3.087392    0.387232
H     -1.095706    1.930118    1.527111
H     -0.422923    2.795373   -1.674382
H     -0.796836    1.239752   -2.552214
H     -2.927361    2.419129   -1.193233
H      1.015112   -1.366789   -1.998260
H      1.114351   -3.275162    1.574227
