138

C     -4.331455    1.333249    0.679247
C     -4.519245    1.994059   -0.643827
C     -3.726189    1.255428   -1.718494
C     -2.252723    1.553802   -1.453222
C     -1.354769    0.683204   -2.256037
C      0.040895    0.822978   -1.780345
O      0.595686    1.925683   -2.156887
O      0.707478   -0.065556   -1.039592
C      0.669779   -0.504559    0.272104
C     -0.650776   -1.275288    0.536211
C     -0.422801   -2.724600    0.284635
C     -0.623414   -3.156072   -1.146579
C     -2.057193   -3.564890   -1.438868
C     -2.734301   -4.596731   -1.126813
C     -4.144824   -5.020564   -1.401728
N     -5.240721   -4.354619   -1.008037
C     -6.369060   -4.964141   -1.389173
C     -5.915578   -6.073129   -2.058613
O     -4.637681   -6.094327   -2.058516
C     -7.692355   -4.423112   -1.066670
N     -7.892135   -3.126390   -0.776980
C     -9.193805   -2.960583   -0.532085
C     -9.776867   -4.197185   -0.682396
O     -8.851310   -5.038918   -1.000025
C     -9.759553   -1.636396   -0.177176
N     -9.104486   -0.510448   -0.453747
C     -9.832566    0.520781   -0.031233
C    -10.978376    0.002472    0.525587
O    -10.877824   -1.296505    0.408784
C     -9.337901    1.918106   -0.212784
C     -7.921124    1.962391    0.337199
C     -6.946180    1.287082   -0.605292
C     -5.924437    2.275946   -1.045708
O     -6.340221    0.187217   -0.056219
C     -7.982789    1.271182    1.692575
O     -9.387546    2.354167   -1.514324
C    -10.156183    3.534954   -1.638784
O     -1.298825   -3.553651    1.028105
C     -0.613364   -4.461784    1.819705
C     -0.968512   -1.094446    1.998632
C      0.863781    0.563712    1.290486
C      2.107109    1.323253    1.199846
C      3.437022    0.711320    1.310579
C      3.662226   -0.044692    2.610858
C      4.042820    0.000653    0.165019
C      5.432406   -0.540247    0.459132
C      6.437897    0.503982    0.725327
O      6.113128    1.654013    0.498198
C      7.771302    0.128386    1.253961
C      7.609288   -0.322222    2.684341
C      8.886759    1.060986    1.006234
C      9.323838    1.304546   -0.385610
C      8.311787    1.852164   -1.330020
C      9.948987    0.097325   -1.010261
C     11.246103    0.053016   -1.253517
N     11.933048   -1.035643   -1.837355
C     11.326227   -2.277983   -2.242203
C     13.344535   -0.917815   -2.048871
O     14.023616   -1.831027   -2.552431
O      8.548284    2.281949    1.626016
C      9.336170    2.588152    2.706850
O      2.023235    2.388264    2.159341
C      2.017835    3.630377    1.542614
O     -2.009926    2.914136   -1.820989
C     -1.613123    3.867293   -0.893967
O     -1.471248    3.514732    0.283809
N     -1.397384    5.181392   -1.358916
H     -3.391870    1.748705    1.156893
H     -4.127041    0.240593    0.630919
H     -5.130197    1.578572    1.379585
H     -4.008203    3.003238   -0.584519
H     -3.856304    0.163570   -1.588273
H     -4.027138    1.523669   -2.728239
H     -2.029346    1.472832   -0.377395
H     -1.445160    1.062874   -3.327714
H     -1.705031   -0.363382   -2.344634
H      1.436466   -1.280755    0.429226
H     -1.476494   -0.835001   -0.018820
H      0.597355   -3.040902    0.579819
H      0.162004   -3.814195   -1.447911
H     -0.373029   -2.179793   -1.690525
H     -2.388573   -2.643851   -2.048973
H     -2.359619   -5.513092   -0.512990
H     -6.530206   -6.841796   -2.531052
H    -10.830455   -4.397892   -0.550342
H    -11.773880    0.597247    0.960573
H     -9.934703    2.639065    0.410051
H     -7.671089    3.046838    0.431584
H     -7.538225    0.932192   -1.491203
H     -5.925242    2.311185   -2.176431
H     -6.223923    3.304429   -0.741640
H     -6.220292   -0.570623   -0.686482
H     -9.001688    1.092101    2.043980
H     -7.490897    1.950185    2.439978
H     -7.444516    0.297212    1.690083
H    -11.195505    3.402029   -1.309957
H    -10.167277    3.883081   -2.679000
H     -9.703195    4.331895   -1.000188
H      0.005034   -5.094037    1.134242
H     -1.327116   -5.107090    2.341338
H      0.067629   -3.925609    2.504098
H     -1.896585   -1.708908    2.245702
H     -0.187583   -1.569654    2.627534
H     -1.187734   -0.046577    2.283782
H      0.808596    0.103366    2.311367
H     -0.019673    1.267962    1.276364
H      2.109758    1.901287    0.215016
H      4.158232    1.625066    1.476470
H      4.738696   -0.083406    2.864965
H      3.371413   -1.103355    2.403803
H      3.026784    0.310610    3.426020
H      3.475840   -0.846786   -0.222792
H      4.182004    0.717530   -0.706031
H      5.406471   -1.293301    1.289100
H      5.751865   -1.103438   -0.444058
H      8.061638   -0.886189    0.724850
H      6.999177   -1.262533    2.695578
H      7.120649    0.440640    3.321926
H      8.609292   -0.538290    3.152203
H      9.754223    0.688469    1.641068
H     10.146186    2.109411   -0.346165
H      7.568765    1.069623   -1.622744
H      7.881125    2.824843   -1.066417
H      8.824672    2.073822   -2.344240
H      9.345776   -0.748777   -1.266474
H     11.835173    0.931283   -0.980857
H     10.238904   -2.206277   -2.344748
H     11.832711   -2.607398   -3.191078
H     11.614793   -3.033137   -1.453304
H     13.877705   -0.006057   -1.769012
H     10.418696    2.678390    2.444422
H      9.282104    1.744165    3.430637
H      8.993668    3.479334    3.247550
H      1.945774    4.405201    2.336691
H      1.168260    3.688264    0.838042
H      2.959025    3.818139    0.974318
H     -1.406666    5.944481   -0.641317
H     -1.234478    5.409873   -2.351682
