49

C     -1.156129    0.178095    5.105467
C     -0.720122    0.261338    3.694132
C     -1.699431    0.184313    2.705779
C     -1.319641    0.259390    1.378120
C     -0.012438    0.407144    0.996888
C      0.955437    0.482475    2.003831
C      0.593801    0.409422    3.327001
C      0.397267    0.487579   -0.414306
O     -0.680024    0.396575   -1.272399
C     -1.994229    0.249528   -0.946451
C     -3.002258    0.168744   -1.912872
C     -4.329243    0.020276   -1.584821
C     -4.716917   -0.055092   -0.273235
C     -3.734227    0.022742    0.703774
C     -2.404747    0.171455    0.376179
O     -6.068991   -0.207198    0.092495
O     -5.307223   -0.057050   -2.562990
C     -4.970757    0.014362   -3.929447
C      0.988144    1.889430   -0.609884
C      1.424386   -0.544910   -0.748972
C      2.715231   -0.292256   -0.759073
C      3.717182   -1.321309   -1.091323
C      4.995886   -1.057278   -1.097644
C      5.465275    0.303332   -0.765330
C      5.968298   -2.111726   -1.434897
H     -0.302059    0.337799    5.777028
H     -1.549147   -0.855972    5.325082
H     -1.950763    0.931832    5.315268
H     -2.725142    0.068411    3.004028
H      1.984677    0.598749    1.706198
H      1.327520    0.465327    4.135811
H     -2.667538    0.231256   -2.947610
H     -4.039042   -0.036519    1.735611
H     -6.767364   -0.261614   -0.636030
H     -4.250914    0.869681   -4.069280
H     -4.458530   -0.913714   -4.243187
H     -5.864658    0.235015   -4.551544
H      1.574960    1.938968   -1.556290
H      1.626223    2.193894    0.215550
H      0.169920    2.629542   -0.723737
H      1.071442   -1.535930   -0.990290
H      3.013028    0.720952   -0.508574
H      3.325132   -2.312296   -1.330362
H      5.199059    0.525718    0.285003
H      6.565419    0.382073   -0.929504
H      4.952840    0.995653   -1.489418
H      6.983472   -1.693494   -1.495699
H      5.728977   -2.632972   -2.398294
H      5.947955   -2.854076   -0.609782
