37

C     -3.376135   -2.572307   -0.514561
C     -2.005568   -2.057036   -0.142994
C     -1.982373   -0.549268   -0.059641
C     -2.349797    0.027866   -1.354942
O     -1.951050   -0.308929   -2.489532
C     -3.293185    1.102472   -1.107893
C     -3.670582    1.006946    0.156821
O     -3.032768   -0.072154    0.772141
C     -4.640942    1.922768    0.831428
N     -0.747655   -0.080883    0.474528
C      0.544861   -0.306703   -0.105305
O      0.557268   -0.973082   -1.169232
C      1.758379    0.210565    0.512373
C      2.950230    0.032546    0.025662
C      3.109954   -0.739010   -1.231222
C      4.189695    0.565073    0.663654
C      4.912979    1.512688   -0.287446
O      6.047945    1.971550    0.356508
H     -4.186096   -1.905388   -0.158401
H     -3.408781   -2.759689   -1.589542
H     -3.499841   -3.549098   -0.000841
H     -1.676358   -2.452325    0.824406
H     -1.289651   -2.358876   -0.933744
H     -3.654805    1.871527   -1.805677
H     -5.529883    2.058216    0.181841
H     -5.000987    1.502763    1.780361
H     -4.160385    2.915663    1.031136
H     -0.708115    0.488926    1.374157
H      1.686871    0.785021    1.440099
H      2.735114   -1.784874   -1.146880
H      2.569216   -0.187715   -2.027963
H      4.186020   -0.744796   -1.577446
H      3.994529    1.087286    1.605936
H      4.860842   -0.300173    0.817859
H      4.243519    2.380590   -0.465262
H      5.207006    1.021039   -1.214213
H      6.610527    1.238800    0.713755
