57

C     -4.987612    0.680406   -1.380745
C     -3.717407   -0.057253   -1.562630
N     -3.029051   -0.408753   -0.277938
C     -2.619795    0.833125    0.233151
C     -1.856834    0.959642    1.482221
C     -0.544787    0.250960    1.557584
C      0.434758    0.728260    0.503707
C      0.708800    2.208343    0.655170
N      1.730614    0.050364    0.642397
C      2.733234    0.258071   -0.313852
C      4.001778   -0.293199   -0.125887
C      4.307524   -1.028642    0.992727
C      5.595481   -1.558918    1.139924
C      6.575645   -1.365788    0.190569
C      6.220629   -0.622502   -0.912307
C      4.969740   -0.074317   -1.113068
N      4.688045    0.649806   -2.218195
C      3.464028    1.167537   -2.376039
C      2.455340    1.000749   -1.455375
Cl     8.189896   -2.025653    0.366933
C     -3.954890   -1.223966    0.407660
C     -3.361470   -1.989487    1.555714
O     -4.352038   -2.782622    2.184078
O     -0.786190   -1.349447   -0.405790
P      0.149400   -0.183871    0.365086
O      0.155041   -0.533405    1.853307
O     -0.490323    1.358588    0.229832
O      1.743022   -0.259411   -0.159020
H     -4.984428    1.678044   -1.925484
H     -5.302876    0.922851   -0.363553
H     -5.864452    0.153472   -1.877386
H     -3.871872   -0.990436   -2.157289
H     -2.994105    0.575353   -2.105754
H     -3.551224    1.482523    0.361763
H     -2.054475    1.354722   -0.595234
H     -1.648523    2.111652    1.561487
H     -2.491014    0.817792    2.366922
H     -0.103047    0.415188    2.560141
H     -0.718502   -0.834883    1.452764
H     -0.016357    0.563673   -0.481565
H      1.794578    2.370749    0.550515
H      0.470002    2.563115    1.685228
H      0.196402    2.775192   -0.121613
H      1.782181   -0.547870    1.474775
H      3.575453   -1.192358    1.737087
H      5.838051   -2.143500    2.035881
H      6.980674   -0.447658   -1.689245
H      3.226463    1.756626   -3.269407
H      1.468215    1.402623   -1.574494
H     -4.810355   -0.591169    0.783010
H     -4.405489   -2.022646   -0.267175
H     -2.607491   -2.736034    1.178528
H     -2.881358   -1.347906    2.288641
H     -4.678081   -3.445276    1.532854
H     -1.644187   -1.015807   -0.742067
H     -1.160683    1.470083   -0.459821
H      2.033919    0.513270   -0.681526
