46

C      2.726519   -0.106059    1.919753
C      3.330330    0.033565    0.542110
C      4.559436   -0.852130    0.497265
C      3.845560    1.473176    0.438805
Si     2.152468   -0.372805   -0.812998
C      2.098127    1.078500   -1.998210
C      2.841276   -1.829052   -1.777729
O      0.604778   -0.795156   -0.272727
C     -0.341128    0.184820   -0.554777
C     -1.707913   -0.153087   -0.095012
C     -2.215735   -1.479253   -0.595830
C     -3.570076   -1.272823   -1.144822
O     -3.891214   -1.818834   -2.169672
C     -4.517073   -0.397434   -0.429361
C     -3.681801    0.610845    0.358574
O     -2.561488    0.892236   -0.429250
C     -3.146364    0.023058    1.608021
C     -1.842169   -0.169719    1.395292
C     -4.477634    1.858329    0.609352
O     -5.570143    1.531245    1.388830
H      3.509062   -0.388651    2.658163
H      1.942409   -0.880898    1.945694
H      2.349139    0.899034    2.252115
H      5.169694   -0.719085    1.409483
H      4.285289   -1.928119    0.461994
H      5.219669   -0.603235   -0.374564
H      4.812473    1.510233    0.989680
H      3.160893    2.183471    0.924975
H      4.071883    1.727790   -0.613541
H      1.816877    2.012843   -1.482183
H      1.380444    0.799913   -2.796591
H      3.080408    1.197316   -2.459961
H      3.812759   -1.553709   -2.236764
H      2.086481   -2.065772   -2.563714
H      2.905673   -2.691256   -1.105663
H     -0.382740    0.425297   -1.637237
H     -0.010909    1.104819   -0.043929
H     -1.551931   -1.923839   -1.364087
H     -2.320408   -2.228827    0.237079
H     -5.163680    0.191564   -1.119098
H     -5.172764   -0.983973    0.233550
H     -3.735635   -0.186734    2.484463
H     -1.095744   -0.302030    2.158690
H     -4.751057    2.291158   -0.378529
H     -3.808421    2.581041    1.132285
H     -6.245619    1.092227    0.809364
