50

C      5.337157   -1.040881   -1.589363
C      4.601260   -0.535126   -0.379388
C      5.402858    0.274164    0.579902
C      3.171419   -0.272169   -0.447204
C      2.718608    1.006068   -0.086068
C      1.425888    1.234643    0.144648
C      0.439740    0.320700    0.066784
C      0.821900   -0.980941   -0.295159
C      2.171330   -1.226972   -0.540033
C     -0.096175   -2.118337   -0.372411
C     -1.537457   -1.761318   -0.346849
C     -1.874713   -0.314423   -0.443226
C     -0.966322    0.599365    0.393491
C     -1.425010    1.982154    0.119567
C     -2.768865    2.199391    0.766240
C     -3.636119    1.010354    0.778246
C     -3.329727   -0.069825   -0.220551
C     -4.012755   -1.324054    0.266547
C     -4.080622    0.333298   -1.498139
C     -1.128709    0.277673    1.831202
O     -1.050529    1.271868    2.642369
O     -1.353841   -0.965905    2.363326
O      3.689346    2.057630   -0.000921
H      4.771686   -1.776756   -2.204610
H      5.759067   -0.222279   -2.224640
H      6.257282   -1.579827   -1.222475
H      4.540635   -1.632962    0.225720
H      6.129598    0.973713    0.127733
H      5.967021   -0.391252    1.335428
H      4.722345    0.829788    1.280034
H      1.125347    2.256307    0.421989
H      2.520731   -2.261393   -0.803789
H      0.156695   -2.744613    0.543578
H      0.210272   -2.772208   -1.223976
H     -2.019692   -2.280558   -1.236444
H     -2.029293   -2.262226    0.520641
H     -1.650116   -0.004165   -1.516886
H     -1.542176    2.153813   -0.995493
H     -0.783858    2.802038    0.498429
H     -3.245003    3.104499    0.274082
H     -2.594083    2.560742    1.809285
H     -4.679084    1.338073    0.591312
H     -3.667031    0.523460    1.798167
H     -5.121816   -1.067599    0.208776
H     -3.849274   -1.504076    1.349952
H     -3.905263   -2.194511   -0.376660
H     -3.534810    1.036497   -2.120486
H     -5.057471    0.775995   -1.147741
H     -4.377256   -0.587620   -2.029794
H      3.376885    2.969764    0.225428
