49

C     -4.176078   -3.167121   -1.454979
C     -3.864496   -1.793784   -1.045521
O     -4.153468   -0.845562   -1.853206
N     -3.251574   -1.547208    0.218657
C     -2.912474   -0.176407    0.499287
C     -1.585718    0.304199    0.006843
C     -1.508816    1.753449    0.392021
C     -1.283863    2.083246    1.708310
C     -1.215350    3.425543    2.055131
C     -1.377497    4.386753    1.054174
C     -1.601235    4.034591   -0.254042
C     -1.669073    2.700976   -0.597214
F     -1.313772    5.689366    1.374729
N     -0.509016   -0.421988    0.648865
C      0.858961   -0.200451    0.236753
N      1.149688    0.676788   -0.741223
C      2.453292    0.852488   -1.095444
C      3.466322    0.157033   -0.478201
C      3.119508   -0.727520    0.514692
N      1.811188   -0.899435    0.865435
C      4.853106    0.361782   -0.873325
N      5.288678    1.210583   -1.838001
N      6.601117    1.123138   -1.910506
C      7.018265    0.224235   -1.000166
O      5.935718   -0.207168   -0.400824
C      8.439740   -0.194473   -0.731494
F      9.069511    0.927105   -0.204879
F      9.061782   -0.585527   -1.876919
C     -3.105591   -2.612576    1.157197
C     -4.235686   -2.675037    2.172401
F     -5.472531   -2.848219    1.636675
F     -4.002149   -3.743111    3.028681
F     -4.222747   -1.540816    2.983589
H     -3.190021   -3.719496   -1.455535
H     -4.836339   -3.653772   -0.729083
H     -4.607932   -3.180175   -2.485234
H     -3.749448    0.517662    0.180752
H     -2.978266   -0.100118    1.632886
H     -1.557532    0.236219   -1.083808
H     -1.167933    1.282089    2.428706
H     -1.039497    3.684107    3.083944
H     -1.719654    4.809676   -0.987760
H     -1.848193    2.438105   -1.645299
H     -0.634215   -1.097112    1.415020
H      2.680328    1.553266   -1.876094
H      3.920765   -1.268772    0.993406
H      8.408329   -0.940084    0.066557
H     -2.137263   -2.706425    1.637082
H     -3.208869   -3.580040    0.559495
