43

C     -2.163580    3.285268   -1.315080
C     -1.796138    2.130081   -0.707735
C     -2.503826    1.537234    0.344317
C     -3.662868    2.227617    0.753857
C     -4.042761    3.393399    0.143147
C     -3.327338    3.963894   -0.896682
F     -3.699906    5.095918   -1.501828
F     -4.492832    1.726406    1.728105
C     -2.084131    0.403333    1.163721
C     -2.101543   -0.834488    0.207750
O     -3.433472   -0.867496   -0.140446
C     -3.948869   -1.899014   -0.816009
C     -3.936754   -3.244391   -0.107144
F     -4.537211   -4.164530   -0.979109
F     -2.640057   -3.660538    0.094546
F     -4.726641   -3.267503    1.024463
N     -0.757877    0.546251    1.698289
C      0.476100    0.149721    1.171940
N      0.652310   -0.530026   -0.005921
C      1.870938   -0.860661   -0.442266
C      3.016318   -0.537568    0.259305
C      2.832485    0.151370    1.437602
N      1.599752    0.456275    1.831804
C      4.374275   -0.889524   -0.125771
N      4.725545   -1.766535   -1.080361
N      6.081157   -1.825705   -1.150990
C      6.556667   -0.969568   -0.218778
O      5.513923   -0.448291    0.355998
C      8.018152   -0.715737    0.028777
F      8.614601   -1.896361    0.369976
F      8.570225   -0.204145   -1.134484
H     -1.578286    3.751981   -2.115395
H     -0.900224    1.657625   -1.055299
H     -4.971997    3.888422    0.458583
H     -2.800373    0.189005    1.939171
H     -1.471785   -0.620004   -0.669822
H     -1.720568   -1.712022    0.732695
H     -3.621750   -2.055690   -1.862695
H     -5.070219   -1.684939   -0.922787
H     -0.721741    1.049012    2.660559
H      2.014475   -1.413141   -1.391296
H      3.689194    0.476341    2.048655
H      8.106630   -0.011273    0.868541
